Program Version,EnergyPlus, Version 9.4.0-998c4b761e, YMD=2020.10.27 09:22
! This file shows details about the branches, nodes, and other
! elements of the flow connections.
! This file is intended for use in "debugging" potential problems
! that may also be detected by the program, but may be more easily
! identified by "eye".
! This file is also intended to support software which draws a
! schematic diagram of the HVAC system.
! ===============================================================
! #Nodes,<Number of Unique Nodes>
 #Nodes,119
! <Node>,<NodeNumber>,<Node Name>,<Node Fluid Type>,<# Times Node Referenced After Definition>
 Node,1,ZONE OFFICE WHOLEBUILDING - MD OFFICE  - STORY B1 PSZ-AC DIFFUSER OUTLET AIR NODE,Air,4
 Node,2,ZONE OFFICE WHOLEBUILDING - MD OFFICE  - STORY B1 RETURN AIR NODE,Air,2
 Node,3,ZONE OFFICE WHOLEBUILDING - MD OFFICE  - STORY B1 1 PSZ-AC DIFFUSER OUTLET AIR NODE,Air,4
 Node,4,ZONE OFFICE WHOLEBUILDING - MD OFFICE  - STORY B1 1 RETURN AIR NODE,Air,2
 Node,5,ZONE OFFICE WHOLEBUILDING - MD OFFICE  - STORY GROUND PSZ-AC DIFFUSER OUTLET AIR NODE,Air,4
 Node,6,ZONE OFFICE WHOLEBUILDING - MD OFFICE  - STORY GROUND RETURN AIR NODE,Air,2
 Node,7,ZONE OFFICE WHOLEBUILDING - MD OFFICE  - STORY GROUND 1 PSZ-AC DIFFUSER OUTLET AIR NODE,Air,4
 Node,8,ZONE OFFICE WHOLEBUILDING - MD OFFICE  - STORY GROUND 1 RETURN AIR NODE,Air,2
 Node,9,ZONE OFFICE WHOLEBUILDING - MD OFFICE  - STORY TOP PSZ-AC DIFFUSER OUTLET AIR NODE,Air,4
 Node,10,ZONE OFFICE WHOLEBUILDING - MD OFFICE  - STORY TOP RETURN AIR NODE,Air,2
 Node,11,ZONE OFFICE WHOLEBUILDING - MD OFFICE  - STORY TOP 1 PSZ-AC DIFFUSER OUTLET AIR NODE,Air,4
 Node,12,ZONE OFFICE WHOLEBUILDING - MD OFFICE  - STORY TOP 1 RETURN AIR NODE,Air,2
 Node,13,ZONE OFFICE WHOLEBUILDING - MD OFFICE  - STORY B1 1 PSZ-AC SUPPLY OUTLET NODE,Air,12
 Node,14,ZONE OFFICE WHOLEBUILDING - MD OFFICE  - STORY B1 1 PSZ-AC DEMAND INLET NODE,Air,3
 Node,15,ZONE OFFICE WHOLEBUILDING - MD OFFICE  - STORY B1 PSZ-AC SUPPLY OUTLET NODE,Air,12
 Node,16,ZONE OFFICE WHOLEBUILDING - MD OFFICE  - STORY B1 PSZ-AC DEMAND INLET NODE,Air,3
 Node,17,ZONE OFFICE WHOLEBUILDING - MD OFFICE  - STORY GROUND 1 PSZ-AC SUPPLY OUTLET NODE,Air,12
 Node,18,ZONE OFFICE WHOLEBUILDING - MD OFFICE  - STORY GROUND 1 PSZ-AC DEMAND INLET NODE,Air,3
 Node,19,ZONE OFFICE WHOLEBUILDING - MD OFFICE  - STORY GROUND PSZ-AC SUPPLY OUTLET NODE,Air,12
 Node,20,ZONE OFFICE WHOLEBUILDING - MD OFFICE  - STORY GROUND PSZ-AC DEMAND INLET NODE,Air,3
 Node,21,ZONE OFFICE WHOLEBUILDING - MD OFFICE  - STORY TOP 1 PSZ-AC SUPPLY OUTLET NODE,Air,12
 Node,22,ZONE OFFICE WHOLEBUILDING - MD OFFICE  - STORY TOP 1 PSZ-AC DEMAND INLET NODE,Air,3
 Node,23,ZONE OFFICE WHOLEBUILDING - MD OFFICE  - STORY TOP PSZ-AC SUPPLY OUTLET NODE,Air,12
 Node,24,ZONE OFFICE WHOLEBUILDING - MD OFFICE  - STORY TOP PSZ-AC DEMAND INLET NODE,Air,3
 Node,25,ZONE OFFICE WHOLEBUILDING - MD OFFICE  - STORY B1 1 PSZ-AC SUPPLY INLET NODE,Air,3
 Node,26,ZONE OFFICE WHOLEBUILDING - MD OFFICE  - STORY B1 1 PSZ-AC MIXED AIR NODE,Air,6
 Node,27,ZONE OFFICE WHOLEBUILDING - MD OFFICE  - STORY B1 1 PSZ-AC 1SPD DX AC CLG COIL OUTLET AIR NODE,Air,6
 Node,28,ZONE OFFICE WHOLEBUILDING - MD OFFICE  - STORY B1 1 PSZ-AC GAS HTG COIL OUTLET AIR NODE,Air,5
 Node,29,ZONE OFFICE WHOLEBUILDING - MD OFFICE  - STORY B1 1 PSZ-AC ELECTRIC BACKUP HTG COIL OUTLET AIR NODE,Air,9
 Node,30,ZONE OFFICE WHOLEBUILDING - MD OFFICE  - STORY B1 PSZ-AC SUPPLY INLET NODE,Air,3
 Node,31,ZONE OFFICE WHOLEBUILDING - MD OFFICE  - STORY B1 PSZ-AC MIXED AIR NODE,Air,6
 Node,32,ZONE OFFICE WHOLEBUILDING - MD OFFICE  - STORY B1 PSZ-AC 1SPD DX AC CLG COIL OUTLET AIR NODE,Air,6
 Node,33,ZONE OFFICE WHOLEBUILDING - MD OFFICE  - STORY B1 PSZ-AC GAS HTG COIL OUTLET AIR NODE,Air,5
 Node,34,ZONE OFFICE WHOLEBUILDING - MD OFFICE  - STORY B1 PSZ-AC ELECTRIC BACKUP HTG COIL OUTLET AIR NODE,Air,9
 Node,35,ZONE OFFICE WHOLEBUILDING - MD OFFICE  - STORY GROUND 1 PSZ-AC SUPPLY INLET NODE,Air,3
 Node,36,ZONE OFFICE WHOLEBUILDING - MD OFFICE  - STORY GROUND 1 PSZ-AC MIXED AIR NODE,Air,6
 Node,37,ZONE OFFICE WHOLEBUILDING - MD OFFICE  - STORY GROUND 1 PSZ-AC 1SPD DX AC CLG COIL OUTLET AIR NODE,Air,6
 Node,38,ZONE OFFICE WHOLEBUILDING - MD OFFICE  - STORY GROUND 1 PSZ-AC GAS HTG COIL OUTLET AIR NODE,Air,5
 Node,39,ZONE OFFICE WHOLEBUILDING - MD OFFICE  - STORY GROUND 1 PSZ-AC ELECTRIC BACKUP HTG COIL OUTLET AIR NODE,Air,9
 Node,40,ZONE OFFICE WHOLEBUILDING - MD OFFICE  - STORY GROUND PSZ-AC SUPPLY INLET NODE,Air,3
 Node,41,ZONE OFFICE WHOLEBUILDING - MD OFFICE  - STORY GROUND PSZ-AC MIXED AIR NODE,Air,6
 Node,42,ZONE OFFICE WHOLEBUILDING - MD OFFICE  - STORY GROUND PSZ-AC 1SPD DX AC CLG COIL OUTLET AIR NODE,Air,6
 Node,43,ZONE OFFICE WHOLEBUILDING - MD OFFICE  - STORY GROUND PSZ-AC GAS HTG COIL OUTLET AIR NODE,Air,5
 Node,44,ZONE OFFICE WHOLEBUILDING - MD OFFICE  - STORY GROUND PSZ-AC ELECTRIC BACKUP HTG COIL OUTLET AIR NODE,Air,9
 Node,45,ZONE OFFICE WHOLEBUILDING - MD OFFICE  - STORY TOP 1 PSZ-AC SUPPLY INLET NODE,Air,3
 Node,46,ZONE OFFICE WHOLEBUILDING - MD OFFICE  - STORY TOP 1 PSZ-AC MIXED AIR NODE,Air,6
 Node,47,ZONE OFFICE WHOLEBUILDING - MD OFFICE  - STORY TOP 1 PSZ-AC 1SPD DX AC CLG COIL OUTLET AIR NODE,Air,6
 Node,48,ZONE OFFICE WHOLEBUILDING - MD OFFICE  - STORY TOP 1 PSZ-AC GAS HTG COIL OUTLET AIR NODE,Air,5
 Node,49,ZONE OFFICE WHOLEBUILDING - MD OFFICE  - STORY TOP 1 PSZ-AC ELECTRIC BACKUP HTG COIL OUTLET AIR NODE,Air,9
 Node,50,ZONE OFFICE WHOLEBUILDING - MD OFFICE  - STORY TOP PSZ-AC SUPPLY INLET NODE,Air,3
 Node,51,ZONE OFFICE WHOLEBUILDING - MD OFFICE  - STORY TOP PSZ-AC MIXED AIR NODE,Air,6
 Node,52,ZONE OFFICE WHOLEBUILDING - MD OFFICE  - STORY TOP PSZ-AC 1SPD DX AC CLG COIL OUTLET AIR NODE,Air,6
 Node,53,ZONE OFFICE WHOLEBUILDING - MD OFFICE  - STORY TOP PSZ-AC GAS HTG COIL OUTLET AIR NODE,Air,5
 Node,54,ZONE OFFICE WHOLEBUILDING - MD OFFICE  - STORY TOP PSZ-AC ELECTRIC BACKUP HTG COIL OUTLET AIR NODE,Air,9
 Node,55,HOT WATER LOOP SUPPLY INLET NODE,Water,2
 Node,56,HOT WATER LOOP PUMP OUTLET WATER NODE,Water,1
 Node,57,BOILER INLET WATER NODE,Water,1
 Node,58,BOILER OUTLET WATER NODE,Water,1
 Node,59,HOT WATER LOOP SUPPLY EQUIPMENT BYPASS INLET WATER NODE,Water,1
 Node,60,HOT WATER LOOP SUPPLY EQUIPMENT BYPASS OUTLET WATER NODE,Water,1
 Node,61,HOT WATER LOOP SUPPLY OUTLET INLET WATER NODE,Water,1
 Node,62,HOT WATER LOOP SUPPLY OUTLET NODE,Water,4
 Node,63,HOT WATER LOOP DEMAND INLET NODE,Water,2
 Node,64,HOT WATER LOOP DEMAND INLET OUTLET WATER NODE,Water,1
 Node,65,HOT WATER LOOP COIL BYPASS INLET WATER NODE,Water,1
 Node,66,HOT WATER LOOP COIL BYPASS OUTLET WATER NODE,Water,1
 Node,67,HOT WATER LOOP DEMAND BYPASS PIPE INLET NODE,Water,1
 Node,68,HOT WATER LOOP DEMAND BYPASS PIPE OUTLET NODE,Water,1
 Node,69,HOT WATER LOOP DEMAND OUTLET INLET WATER NODE,Water,1
 Node,70,HOT WATER LOOP DEMAND OUTLET NODE,Water,2
 Node,71,OFFICE SHARED SERVICE WATER LOOP SUPPLY INLET NODE,Water,2
 Node,72,OFFICE SHARED SERVICE WATER LOOP CIRCULATOR PUMP OUTLET WATER NODE,Water,1
 Node,73,40GAL NATURALGAS WATER HEATER - 14KBTU/HR SUPPLY INLET WATER NODE,Water,1
 Node,74,40GAL NATURALGAS WATER HEATER - 14KBTU/HR SUPPLY OUTLET WATER NODE,Water,1
 Node,75,PIPE ADIABATIC 1 INLET WATER NODE,Water,1
 Node,76,PIPE ADIABATIC 1 OUTLET WATER NODE,Water,1
 Node,77,PIPE ADIABATIC 3 INLET WATER NODE,Water,1
 Node,78,OFFICE SHARED SERVICE WATER LOOP SUPPLY OUTLET NODE,Water,4
 Node,79,OFFICE SHARED SERVICE WATER LOOP DEMAND INLET NODE,Water,2
 Node,80,OFFICE SHARED SERVICE WATER LOOP PIPE 222.57418583505543FT OUTLET WATER NODE,Water,1
 Node,81,PIPE ADIABATIC 2 INLET WATER NODE,Water,1
 Node,82,PIPE ADIABATIC 2 OUTLET WATER NODE,Water,1
 Node,83,OFFICE WHOLEBUILDING - MD OFFICE - 90.1-2004 WUC 0.4GPM AT 140F INLET WATER NODE,Water,1
 Node,84,OFFICE WHOLEBUILDING - MD OFFICE - 90.1-2004 WUC 0.4GPM AT 140F OUTLET WATER NODE,Water,1
 Node,85,OFFICE SHARED SERVICE WATER LOOP DEMAND BYPASS PIPE INLET NODE,Water,1
 Node,86,OFFICE SHARED SERVICE WATER LOOP DEMAND BYPASS PIPE OUTLET NODE,Water,1
 Node,87,PIPE ADIABATIC 4 INLET WATER NODE,Water,1
 Node,88,OFFICE SHARED SERVICE WATER LOOP DEMAND OUTLET NODE,Water,2
 Node,89,ZONE OFFICE WHOLEBUILDING - MD OFFICE  - STORY B1 ZONE AIR NODE,Air,1
 Node,90,ZONE OFFICE WHOLEBUILDING - MD OFFICE  - STORY B1 1 ZONE AIR NODE,Air,1
 Node,91,ZONE OFFICE WHOLEBUILDING - MD OFFICE  - STORY GROUND ZONE AIR NODE,Air,1
 Node,92,ZONE OFFICE WHOLEBUILDING - MD OFFICE  - STORY GROUND 1 ZONE AIR NODE,Air,1
 Node,93,ZONE OFFICE WHOLEBUILDING - MD OFFICE  - STORY TOP ZONE AIR NODE,Air,1
 Node,94,ZONE OFFICE WHOLEBUILDING - MD OFFICE  - STORY TOP 1 ZONE AIR NODE,Air,1
 Node,95,ZONE OFFICE WHOLEBUILDING - MD OFFICE  - STORY B1 1 PSZ-AC DEMAND OUTLET NODE,Air,2
 Node,96,ZONE OFFICE WHOLEBUILDING - MD OFFICE  - STORY B1 PSZ-AC DEMAND OUTLET NODE,Air,2
 Node,97,ZONE OFFICE WHOLEBUILDING - MD OFFICE  - STORY GROUND 1 PSZ-AC DEMAND OUTLET NODE,Air,2
 Node,98,ZONE OFFICE WHOLEBUILDING - MD OFFICE  - STORY GROUND PSZ-AC DEMAND OUTLET NODE,Air,2
 Node,99,ZONE OFFICE WHOLEBUILDING - MD OFFICE  - STORY TOP 1 PSZ-AC DEMAND OUTLET NODE,Air,2
 Node,100,ZONE OFFICE WHOLEBUILDING - MD OFFICE  - STORY TOP PSZ-AC DEMAND OUTLET NODE,Air,2
 Node,101,ZONE OFFICE WHOLEBUILDING - MD OFFICE  - STORY B1 1 PSZ-AC OUTDOOR AIR NODE,Air,2
 Node,102,ZONE OFFICE WHOLEBUILDING - MD OFFICE  - STORY B1 PSZ-AC OUTDOOR AIR NODE,Air,2
 Node,103,ZONE OFFICE WHOLEBUILDING - MD OFFICE  - STORY GROUND 1 PSZ-AC OUTDOOR AIR NODE,Air,2
 Node,104,ZONE OFFICE WHOLEBUILDING - MD OFFICE  - STORY GROUND PSZ-AC OUTDOOR AIR NODE,Air,2
 Node,105,ZONE OFFICE WHOLEBUILDING - MD OFFICE  - STORY TOP 1 PSZ-AC OUTDOOR AIR NODE,Air,2
 Node,106,ZONE OFFICE WHOLEBUILDING - MD OFFICE  - STORY TOP PSZ-AC OUTDOOR AIR NODE,Air,2
 Node,107,MODEL OUTDOOR AIR NODE,Air,0
 Node,108,ZONE OFFICE WHOLEBUILDING - MD OFFICE  - STORY B1 1 PSZ-AC DIFFUSER INLET AIR NODE,Air,1
 Node,109,ZONE OFFICE WHOLEBUILDING - MD OFFICE  - STORY B1 PSZ-AC DIFFUSER INLET AIR NODE,Air,1
 Node,110,ZONE OFFICE WHOLEBUILDING - MD OFFICE  - STORY GROUND 1 PSZ-AC DIFFUSER INLET AIR NODE,Air,1
 Node,111,ZONE OFFICE WHOLEBUILDING - MD OFFICE  - STORY GROUND PSZ-AC DIFFUSER INLET AIR NODE,Air,1
 Node,112,ZONE OFFICE WHOLEBUILDING - MD OFFICE  - STORY TOP 1 PSZ-AC DIFFUSER INLET AIR NODE,Air,1
 Node,113,ZONE OFFICE WHOLEBUILDING - MD OFFICE  - STORY TOP PSZ-AC DIFFUSER INLET AIR NODE,Air,1
 Node,114,ZONE OFFICE WHOLEBUILDING - MD OFFICE  - STORY B1 1 PSZ-AC RELIEF AIR NODE,Air,1
 Node,115,ZONE OFFICE WHOLEBUILDING - MD OFFICE  - STORY B1 PSZ-AC RELIEF AIR NODE,Air,1
 Node,116,ZONE OFFICE WHOLEBUILDING - MD OFFICE  - STORY GROUND 1 PSZ-AC RELIEF AIR NODE,Air,1
 Node,117,ZONE OFFICE WHOLEBUILDING - MD OFFICE  - STORY GROUND PSZ-AC RELIEF AIR NODE,Air,1
 Node,118,ZONE OFFICE WHOLEBUILDING - MD OFFICE  - STORY TOP 1 PSZ-AC RELIEF AIR NODE,Air,1
 Node,119,ZONE OFFICE WHOLEBUILDING - MD OFFICE  - STORY TOP PSZ-AC RELIEF AIR NODE,Air,1
! ===============================================================
! Suspicious nodes have 0 references.  It is normal for some nodes, however.
! Listing nodes with 0 references (culled from previous list):
! <Suspicious Node>,<NodeNumber>,<Node Name>,<Node Fluid Type>,<# Times Node Referenced After Definition>
 Suspicious Node,107,MODEL OUTDOOR AIR NODE,Air,0
! ===============================================================
! <#Branch Lists>,<Number of Branch Lists>
 #Branch Lists,10
! <Branch List>,<Branch List Count>,<Branch List Name>,<Loop Name>,<Loop Type>,<Number of Branches>
! <Branch>,<Branch Count>,<Branch Name>,<Loop Name>,<Loop Type>,<Branch Inlet Node Name>,<Branch Outlet Node Name>
 Branch List,1,ZONE OFFICE WHOLEBUILDING - MD OFFICE  - STORY B1 1 PSZ-AC SUPPLY BRANCHES,ZONE OFFICE WHOLEBUILDING - MD OFFICE  - STORY B1 1 PSZ-AC,Air,1
   Branch,1,ZONE OFFICE WHOLEBUILDING - MD OFFICE  - STORY B1 1 PSZ-AC MAIN BRANCH,ZONE OFFICE WHOLEBUILDING - MD OFFICE  - STORY B1 1 PSZ-AC,Air,ZONE OFFICE WHOLEBUILDING - MD OFFICE  - STORY B1 1 PSZ-AC SUPPLY INLET NODE,ZONE OFFICE WHOLEBUILDING - MD OFFICE  - STORY B1 1 PSZ-AC SUPPLY OUTLET NODE
 Branch List,2,ZONE OFFICE WHOLEBUILDING - MD OFFICE  - STORY B1 PSZ-AC SUPPLY BRANCHES,ZONE OFFICE WHOLEBUILDING - MD OFFICE  - STORY B1 PSZ-AC,Air,1
   Branch,1,ZONE OFFICE WHOLEBUILDING - MD OFFICE  - STORY B1 PSZ-AC MAIN BRANCH,ZONE OFFICE WHOLEBUILDING - MD OFFICE  - STORY B1 PSZ-AC,Air,ZONE OFFICE WHOLEBUILDING - MD OFFICE  - STORY B1 PSZ-AC SUPPLY INLET NODE,ZONE OFFICE WHOLEBUILDING - MD OFFICE  - STORY B1 PSZ-AC SUPPLY OUTLET NODE
 Branch List,3,ZONE OFFICE WHOLEBUILDING - MD OFFICE  - STORY GROUND 1 PSZ-AC SUPPLY BRANCHES,ZONE OFFICE WHOLEBUILDING - MD OFFICE  - STORY GROUND 1 PSZ-AC,Air,1
   Branch,1,ZONE OFFICE WHOLEBUILDING - MD OFFICE  - STORY GROUND 1 PSZ-AC MAIN BRANCH,ZONE OFFICE WHOLEBUILDING - MD OFFICE  - STORY GROUND 1 PSZ-AC,Air,ZONE OFFICE WHOLEBUILDING - MD OFFICE  - STORY GROUND 1 PSZ-AC SUPPLY INLET NODE,ZONE OFFICE WHOLEBUILDING - MD OFFICE  - STORY GROUND 1 PSZ-AC SUPPLY OUTLET NODE
 Branch List,4,ZONE OFFICE WHOLEBUILDING - MD OFFICE  - STORY GROUND PSZ-AC SUPPLY BRANCHES,ZONE OFFICE WHOLEBUILDING - MD OFFICE  - STORY GROUND PSZ-AC,Air,1
   Branch,1,ZONE OFFICE WHOLEBUILDING - MD OFFICE  - STORY GROUND PSZ-AC MAIN BRANCH,ZONE OFFICE WHOLEBUILDING - MD OFFICE  - STORY GROUND PSZ-AC,Air,ZONE OFFICE WHOLEBUILDING - MD OFFICE  - STORY GROUND PSZ-AC SUPPLY INLET NODE,ZONE OFFICE WHOLEBUILDING - MD OFFICE  - STORY GROUND PSZ-AC SUPPLY OUTLET NODE
 Branch List,5,ZONE OFFICE WHOLEBUILDING - MD OFFICE  - STORY TOP 1 PSZ-AC SUPPLY BRANCHES,ZONE OFFICE WHOLEBUILDING - MD OFFICE  - STORY TOP 1 PSZ-AC,Air,1
   Branch,1,ZONE OFFICE WHOLEBUILDING - MD OFFICE  - STORY TOP 1 PSZ-AC MAIN BRANCH,ZONE OFFICE WHOLEBUILDING - MD OFFICE  - STORY TOP 1 PSZ-AC,Air,ZONE OFFICE WHOLEBUILDING - MD OFFICE  - STORY TOP 1 PSZ-AC SUPPLY INLET NODE,ZONE OFFICE WHOLEBUILDING - MD OFFICE  - STORY TOP 1 PSZ-AC SUPPLY OUTLET NODE
 Branch List,6,ZONE OFFICE WHOLEBUILDING - MD OFFICE  - STORY TOP PSZ-AC SUPPLY BRANCHES,ZONE OFFICE WHOLEBUILDING - MD OFFICE  - STORY TOP PSZ-AC,Air,1
   Branch,1,ZONE OFFICE WHOLEBUILDING - MD OFFICE  - STORY TOP PSZ-AC MAIN BRANCH,ZONE OFFICE WHOLEBUILDING - MD OFFICE  - STORY TOP PSZ-AC,Air,ZONE OFFICE WHOLEBUILDING - MD OFFICE  - STORY TOP PSZ-AC SUPPLY INLET NODE,ZONE OFFICE WHOLEBUILDING - MD OFFICE  - STORY TOP PSZ-AC SUPPLY OUTLET NODE
 Branch List,7,HOT WATER LOOP SUPPLY BRANCHES,HOT WATER LOOP,Plant Supply,4
   Branch,1,HOT WATER LOOP SUPPLY INLET BRANCH,HOT WATER LOOP,Plant Supply,HOT WATER LOOP SUPPLY INLET NODE,HOT WATER LOOP PUMP OUTLET WATER NODE
   Branch,2,HOT WATER LOOP SUPPLY BRANCH 1,HOT WATER LOOP,Plant Supply,BOILER INLET WATER NODE,BOILER OUTLET WATER NODE
   Branch,3,HOT WATER LOOP SUPPLY BRANCH 2,HOT WATER LOOP,Plant Supply,HOT WATER LOOP SUPPLY EQUIPMENT BYPASS INLET WATER NODE,HOT WATER LOOP SUPPLY EQUIPMENT BYPASS OUTLET WATER NODE
   Branch,4,HOT WATER LOOP SUPPLY OUTLET BRANCH,HOT WATER LOOP,Plant Supply,HOT WATER LOOP SUPPLY OUTLET INLET WATER NODE,HOT WATER LOOP SUPPLY OUTLET NODE
 Branch List,8,HOT WATER LOOP DEMAND BRANCHES,HOT WATER LOOP,Plant Demand,4
   Branch,1,HOT WATER LOOP DEMAND INLET BRANCH,HOT WATER LOOP,Plant Demand,HOT WATER LOOP DEMAND INLET NODE,HOT WATER LOOP DEMAND INLET OUTLET WATER NODE
   Branch,2,HOT WATER LOOP DEMAND BRANCH 1,HOT WATER LOOP,Plant Demand,HOT WATER LOOP COIL BYPASS INLET WATER NODE,HOT WATER LOOP COIL BYPASS OUTLET WATER NODE
   Branch,3,HOT WATER LOOP DEMAND BYPASS BRANCH,HOT WATER LOOP,Plant Demand,HOT WATER LOOP DEMAND BYPASS PIPE INLET NODE,HOT WATER LOOP DEMAND BYPASS PIPE OUTLET NODE
   Branch,4,HOT WATER LOOP DEMAND OUTLET BRANCH,HOT WATER LOOP,Plant Demand,HOT WATER LOOP DEMAND OUTLET INLET WATER NODE,HOT WATER LOOP DEMAND OUTLET NODE
 Branch List,9,OFFICE SHARED SERVICE WATER LOOP SUPPLY BRANCHES,OFFICE SHARED SERVICE WATER LOOP,Plant Supply,4
   Branch,1,OFFICE SHARED SERVICE WATER LOOP SUPPLY INLET BRANCH,OFFICE SHARED SERVICE WATER LOOP,Plant Supply,OFFICE SHARED SERVICE WATER LOOP SUPPLY INLET NODE,OFFICE SHARED SERVICE WATER LOOP CIRCULATOR PUMP OUTLET WATER NODE
   Branch,2,OFFICE SHARED SERVICE WATER LOOP SUPPLY BRANCH 1,OFFICE SHARED SERVICE WATER LOOP,Plant Supply,40GAL NATURALGAS WATER HEATER - 14KBTU/HR SUPPLY INLET WATER NODE,40GAL NATURALGAS WATER HEATER - 14KBTU/HR SUPPLY OUTLET WATER NODE
   Branch,3,OFFICE SHARED SERVICE WATER LOOP SUPPLY BRANCH 2,OFFICE SHARED SERVICE WATER LOOP,Plant Supply,PIPE ADIABATIC 1 INLET WATER NODE,PIPE ADIABATIC 1 OUTLET WATER NODE
   Branch,4,OFFICE SHARED SERVICE WATER LOOP SUPPLY OUTLET BRANCH,OFFICE SHARED SERVICE WATER LOOP,Plant Supply,PIPE ADIABATIC 3 INLET WATER NODE,OFFICE SHARED SERVICE WATER LOOP SUPPLY OUTLET NODE
 Branch List,10,OFFICE SHARED SERVICE WATER LOOP DEMAND BRANCHES,OFFICE SHARED SERVICE WATER LOOP,Plant Demand,5
   Branch,1,OFFICE SHARED SERVICE WATER LOOP DEMAND INLET BRANCH,OFFICE SHARED SERVICE WATER LOOP,Plant Demand,OFFICE SHARED SERVICE WATER LOOP DEMAND INLET NODE,OFFICE SHARED SERVICE WATER LOOP PIPE 222.57418583505543FT OUTLET WATER NODE
   Branch,2,OFFICE SHARED SERVICE WATER LOOP DEMAND BRANCH 1,OFFICE SHARED SERVICE WATER LOOP,Plant Demand,PIPE ADIABATIC 2 INLET WATER NODE,PIPE ADIABATIC 2 OUTLET WATER NODE
   Branch,3,OFFICE SHARED SERVICE WATER LOOP DEMAND BRANCH 2,OFFICE SHARED SERVICE WATER LOOP,Plant Demand,OFFICE WHOLEBUILDING - MD OFFICE - 90.1-2004 WUC 0.4GPM AT 140F INLET WATER NODE,OFFICE WHOLEBUILDING - MD OFFICE - 90.1-2004 WUC 0.4GPM AT 140F OUTLET WATER NODE
   Branch,4,OFFICE SHARED SERVICE WATER LOOP DEMAND BYPASS BRANCH,OFFICE SHARED SERVICE WATER LOOP,Plant Demand,OFFICE SHARED SERVICE WATER LOOP DEMAND BYPASS PIPE INLET NODE,OFFICE SHARED SERVICE WATER LOOP DEMAND BYPASS PIPE OUTLET NODE
   Branch,5,OFFICE SHARED SERVICE WATER LOOP DEMAND OUTLET BRANCH,OFFICE SHARED SERVICE WATER LOOP,Plant Demand,PIPE ADIABATIC 4 INLET WATER NODE,OFFICE SHARED SERVICE WATER LOOP DEMAND OUTLET NODE
! ===============================================================
! <#Supply Air Paths>,<Number of Supply Air Paths>
 #Supply Air Paths,6
! <Supply Air Path>,<Supply Air Path Count>,<Supply Air Path Name>,<AirLoopHVAC Name>
! <#Components on Supply Air Path>,<Number of Components>
! <Supply Air Path Component>,<Component Count>,<Component Type>,<Component Name>,<AirLoopHVAC Name>
! <#Outlet Nodes on Supply Air Path Component>,<Number of Nodes>
! <Supply Air Path Component Nodes>,<Node Count>,<Component Type>,<Component Name>,<Inlet Node Name>,<Outlet Node Name>,<AirLoopHVAC Name>
 Supply Air Path,1,ZONE OFFICE WHOLEBUILDING - MD OFFICE  - STORY B1 1 PSZ-AC ZONE OFFICE WHOLEBUILDING - MD OFFICE  - STORY B1 1 PSZ-AC DEMAND INLET NODE SUPPLY PATH,ZONE OFFICE WHOLEBUILDING - MD OFFICE  - STORY B1 1 PSZ-AC
   #Components on Supply Air Path,1
   Supply Air Path Component,1,AIRLOOPHVAC:ZONESPLITTER,AIR LOOP HVAC ZONE SPLITTER 2,ZONE OFFICE WHOLEBUILDING - MD OFFICE  - STORY B1 1 PSZ-AC
     #Outlet Nodes on Supply Air Path Component,1
     Supply Air Path Component Nodes,1,AIRLOOPHVAC:ZONESPLITTER,AIR LOOP HVAC ZONE SPLITTER 2,ZONE OFFICE WHOLEBUILDING - MD OFFICE  - STORY B1 1 PSZ-AC DEMAND INLET NODE,ZONE OFFICE WHOLEBUILDING - MD OFFICE  - STORY B1 1 PSZ-AC DIFFUSER INLET AIR NODE,ZONE OFFICE WHOLEBUILDING - MD OFFICE  - STORY B1 1 PSZ-AC
! <#Nodes on Supply Air Path>,<Number of Nodes>
! <Supply Air Path Node>,<Node Type>,<Node Count>,<Node Name>,<AirLoopHVAC Name>
#Nodes on Supply Air Path,2
   Supply Air Path Node,Inlet Node,1,ZONE OFFICE WHOLEBUILDING - MD OFFICE  - STORY B1 1 PSZ-AC DEMAND INLET NODE,ZONE OFFICE WHOLEBUILDING - MD OFFICE  - STORY B1 1 PSZ-AC
   Supply Air Path Node,Outlet Node,2,ZONE OFFICE WHOLEBUILDING - MD OFFICE  - STORY B1 1 PSZ-AC DIFFUSER INLET AIR NODE,ZONE OFFICE WHOLEBUILDING - MD OFFICE  - STORY B1 1 PSZ-AC
 Supply Air Path,2,ZONE OFFICE WHOLEBUILDING - MD OFFICE  - STORY B1 PSZ-AC ZONE OFFICE WHOLEBUILDING - MD OFFICE  - STORY B1 PSZ-AC DEMAND INLET NODE SUPPLY PATH,ZONE OFFICE WHOLEBUILDING - MD OFFICE  - STORY B1 PSZ-AC
   #Components on Supply Air Path,1
   Supply Air Path Component,1,AIRLOOPHVAC:ZONESPLITTER,AIR LOOP HVAC ZONE SPLITTER 1,ZONE OFFICE WHOLEBUILDING - MD OFFICE  - STORY B1 PSZ-AC
     #Outlet Nodes on Supply Air Path Component,1
     Supply Air Path Component Nodes,1,AIRLOOPHVAC:ZONESPLITTER,AIR LOOP HVAC ZONE SPLITTER 1,ZONE OFFICE WHOLEBUILDING - MD OFFICE  - STORY B1 PSZ-AC DEMAND INLET NODE,ZONE OFFICE WHOLEBUILDING - MD OFFICE  - STORY B1 PSZ-AC DIFFUSER INLET AIR NODE,ZONE OFFICE WHOLEBUILDING - MD OFFICE  - STORY B1 PSZ-AC
! <#Nodes on Supply Air Path>,<Number of Nodes>
! <Supply Air Path Node>,<Node Type>,<Node Count>,<Node Name>,<AirLoopHVAC Name>
#Nodes on Supply Air Path,2
   Supply Air Path Node,Inlet Node,1,ZONE OFFICE WHOLEBUILDING - MD OFFICE  - STORY B1 PSZ-AC DEMAND INLET NODE,ZONE OFFICE WHOLEBUILDING - MD OFFICE  - STORY B1 PSZ-AC
   Supply Air Path Node,Outlet Node,2,ZONE OFFICE WHOLEBUILDING - MD OFFICE  - STORY B1 PSZ-AC DIFFUSER INLET AIR NODE,ZONE OFFICE WHOLEBUILDING - MD OFFICE  - STORY B1 PSZ-AC
 Supply Air Path,3,ZONE OFFICE WHOLEBUILDING - MD OFFICE  - STORY GROUND 1 PSZ-AC ZONE OFFICE WHOLEBUILDING - MD OFFICE  - STORY GROUND 1 PSZ-AC DEMAND INLET NODE SUPPLY PATH,ZONE OFFICE WHOLEBUILDING - MD OFFICE  - STORY GROUND 1 PSZ-AC
   #Components on Supply Air Path,1
   Supply Air Path Component,1,AIRLOOPHVAC:ZONESPLITTER,AIR LOOP HVAC ZONE SPLITTER 4,ZONE OFFICE WHOLEBUILDING - MD OFFICE  - STORY GROUND 1 PSZ-AC
     #Outlet Nodes on Supply Air Path Component,1
     Supply Air Path Component Nodes,1,AIRLOOPHVAC:ZONESPLITTER,AIR LOOP HVAC ZONE SPLITTER 4,ZONE OFFICE WHOLEBUILDING - MD OFFICE  - STORY GROUND 1 PSZ-AC DEMAND INLET NODE,ZONE OFFICE WHOLEBUILDING - MD OFFICE  - STORY GROUND 1 PSZ-AC DIFFUSER INLET AIR NODE,ZONE OFFICE WHOLEBUILDING - MD OFFICE  - STORY GROUND 1 PSZ-AC
! <#Nodes on Supply Air Path>,<Number of Nodes>
! <Supply Air Path Node>,<Node Type>,<Node Count>,<Node Name>,<AirLoopHVAC Name>
#Nodes on Supply Air Path,2
   Supply Air Path Node,Inlet Node,1,ZONE OFFICE WHOLEBUILDING - MD OFFICE  - STORY GROUND 1 PSZ-AC DEMAND INLET NODE,ZONE OFFICE WHOLEBUILDING - MD OFFICE  - STORY GROUND 1 PSZ-AC
   Supply Air Path Node,Outlet Node,2,ZONE OFFICE WHOLEBUILDING - MD OFFICE  - STORY GROUND 1 PSZ-AC DIFFUSER INLET AIR NODE,ZONE OFFICE WHOLEBUILDING - MD OFFICE  - STORY GROUND 1 PSZ-AC
 Supply Air Path,4,ZONE OFFICE WHOLEBUILDING - MD OFFICE  - STORY GROUND PSZ-AC ZONE OFFICE WHOLEBUILDING - MD OFFICE  - STORY GROUND PSZ-AC DEMAND INLET NODE SUPPLY PATH,ZONE OFFICE WHOLEBUILDING - MD OFFICE  - STORY GROUND PSZ-AC
   #Components on Supply Air Path,1
   Supply Air Path Component,1,AIRLOOPHVAC:ZONESPLITTER,AIR LOOP HVAC ZONE SPLITTER 3,ZONE OFFICE WHOLEBUILDING - MD OFFICE  - STORY GROUND PSZ-AC
     #Outlet Nodes on Supply Air Path Component,1
     Supply Air Path Component Nodes,1,AIRLOOPHVAC:ZONESPLITTER,AIR LOOP HVAC ZONE SPLITTER 3,ZONE OFFICE WHOLEBUILDING - MD OFFICE  - STORY GROUND PSZ-AC DEMAND INLET NODE,ZONE OFFICE WHOLEBUILDING - MD OFFICE  - STORY GROUND PSZ-AC DIFFUSER INLET AIR NODE,ZONE OFFICE WHOLEBUILDING - MD OFFICE  - STORY GROUND PSZ-AC
! <#Nodes on Supply Air Path>,<Number of Nodes>
! <Supply Air Path Node>,<Node Type>,<Node Count>,<Node Name>,<AirLoopHVAC Name>
#Nodes on Supply Air Path,2
   Supply Air Path Node,Inlet Node,1,ZONE OFFICE WHOLEBUILDING - MD OFFICE  - STORY GROUND PSZ-AC DEMAND INLET NODE,ZONE OFFICE WHOLEBUILDING - MD OFFICE  - STORY GROUND PSZ-AC
   Supply Air Path Node,Outlet Node,2,ZONE OFFICE WHOLEBUILDING - MD OFFICE  - STORY GROUND PSZ-AC DIFFUSER INLET AIR NODE,ZONE OFFICE WHOLEBUILDING - MD OFFICE  - STORY GROUND PSZ-AC
 Supply Air Path,5,ZONE OFFICE WHOLEBUILDING - MD OFFICE  - STORY TOP 1 PSZ-AC ZONE OFFICE WHOLEBUILDING - MD OFFICE  - STORY TOP 1 PSZ-AC DEMAND INLET NODE SUPPLY PATH,ZONE OFFICE WHOLEBUILDING - MD OFFICE  - STORY TOP 1 PSZ-AC
   #Components on Supply Air Path,1
   Supply Air Path Component,1,AIRLOOPHVAC:ZONESPLITTER,AIR LOOP HVAC ZONE SPLITTER 6,ZONE OFFICE WHOLEBUILDING - MD OFFICE  - STORY TOP 1 PSZ-AC
     #Outlet Nodes on Supply Air Path Component,1
     Supply Air Path Component Nodes,1,AIRLOOPHVAC:ZONESPLITTER,AIR LOOP HVAC ZONE SPLITTER 6,ZONE OFFICE WHOLEBUILDING - MD OFFICE  - STORY TOP 1 PSZ-AC DEMAND INLET NODE,ZONE OFFICE WHOLEBUILDING - MD OFFICE  - STORY TOP 1 PSZ-AC DIFFUSER INLET AIR NODE,ZONE OFFICE WHOLEBUILDING - MD OFFICE  - STORY TOP 1 PSZ-AC
! <#Nodes on Supply Air Path>,<Number of Nodes>
! <Supply Air Path Node>,<Node Type>,<Node Count>,<Node Name>,<AirLoopHVAC Name>
#Nodes on Supply Air Path,2
   Supply Air Path Node,Inlet Node,1,ZONE OFFICE WHOLEBUILDING - MD OFFICE  - STORY TOP 1 PSZ-AC DEMAND INLET NODE,ZONE OFFICE WHOLEBUILDING - MD OFFICE  - STORY TOP 1 PSZ-AC
   Supply Air Path Node,Outlet Node,2,ZONE OFFICE WHOLEBUILDING - MD OFFICE  - STORY TOP 1 PSZ-AC DIFFUSER INLET AIR NODE,ZONE OFFICE WHOLEBUILDING - MD OFFICE  - STORY TOP 1 PSZ-AC
 Supply Air Path,6,ZONE OFFICE WHOLEBUILDING - MD OFFICE  - STORY TOP PSZ-AC ZONE OFFICE WHOLEBUILDING - MD OFFICE  - STORY TOP PSZ-AC DEMAND INLET NODE SUPPLY PATH,ZONE OFFICE WHOLEBUILDING - MD OFFICE  - STORY TOP PSZ-AC
   #Components on Supply Air Path,1
   Supply Air Path Component,1,AIRLOOPHVAC:ZONESPLITTER,AIR LOOP HVAC ZONE SPLITTER 5,ZONE OFFICE WHOLEBUILDING - MD OFFICE  - STORY TOP PSZ-AC
     #Outlet Nodes on Supply Air Path Component,1
     Supply Air Path Component Nodes,1,AIRLOOPHVAC:ZONESPLITTER,AIR LOOP HVAC ZONE SPLITTER 5,ZONE OFFICE WHOLEBUILDING - MD OFFICE  - STORY TOP PSZ-AC DEMAND INLET NODE,ZONE OFFICE WHOLEBUILDING - MD OFFICE  - STORY TOP PSZ-AC DIFFUSER INLET AIR NODE,ZONE OFFICE WHOLEBUILDING - MD OFFICE  - STORY TOP PSZ-AC
! <#Nodes on Supply Air Path>,<Number of Nodes>
! <Supply Air Path Node>,<Node Type>,<Node Count>,<Node Name>,<AirLoopHVAC Name>
#Nodes on Supply Air Path,2
   Supply Air Path Node,Inlet Node,1,ZONE OFFICE WHOLEBUILDING - MD OFFICE  - STORY TOP PSZ-AC DEMAND INLET NODE,ZONE OFFICE WHOLEBUILDING - MD OFFICE  - STORY TOP PSZ-AC
   Supply Air Path Node,Outlet Node,2,ZONE OFFICE WHOLEBUILDING - MD OFFICE  - STORY TOP PSZ-AC DIFFUSER INLET AIR NODE,ZONE OFFICE WHOLEBUILDING - MD OFFICE  - STORY TOP PSZ-AC
! ===============================================================
! <#Return Air Paths>,<Number of Return Air Paths>
 #Return Air Paths,6
! <Return Air Path>,<Return Air Path Count>,<Return Air Path Name>,<AirLoopHVAC Name>
! <#Components on Return Air Path>,<Number of Components>
! <Return Air Path Component>,<Component Count>,<Component Type>,<Component Name>,<AirLoopHVAC Name>
! <#Inlet Nodes on Return Air Path Component>,<Number of Nodes>
! <Return Air Path Component Nodes>,<Node Count>,<Component Type>,<Component Name>,<Inlet Node Name>,<Outlet Node Name>,<AirLoopHVAC Name>
 Return Air Path,1,ZONE OFFICE WHOLEBUILDING - MD OFFICE  - STORY B1 1 PSZ-AC RETURN PATH,ZONE OFFICE WHOLEBUILDING - MD OFFICE  - STORY B1 1 PSZ-AC
   #Components on Return Air Path,1
   Return Air Path Component,1,AIRLOOPHVAC:ZONEMIXER,AIR LOOP HVAC ZONE MIXER 2,ZONE OFFICE WHOLEBUILDING - MD OFFICE  - STORY B1 1 PSZ-AC
     #Inlet Nodes on Return Air Path Component,1
     Return Air Path Component Nodes,1,AIRLOOPHVAC:ZONEMIXER,AIR LOOP HVAC ZONE MIXER 2,ZONE OFFICE WHOLEBUILDING - MD OFFICE  - STORY B1 1 RETURN AIR NODE,ZONE OFFICE WHOLEBUILDING - MD OFFICE  - STORY B1 1 PSZ-AC DEMAND OUTLET NODE,ZONE OFFICE WHOLEBUILDING - MD OFFICE  - STORY B1 1 PSZ-AC
! <#Nodes on Return Air Path>,<Number of Nodes>
! <Return Air Path Node>,<Node Type>,<Node Count>,<Node Name>,<AirLoopHVAC Name>
   #Nodes on Return Air Path,2
   Return Air Path Node,Outlet Node,1,ZONE OFFICE WHOLEBUILDING - MD OFFICE  - STORY B1 1 PSZ-AC DEMAND OUTLET NODE,ZONE OFFICE WHOLEBUILDING - MD OFFICE  - STORY B1 1 PSZ-AC
   Return Air Path Node,Inlet Node,2,ZONE OFFICE WHOLEBUILDING - MD OFFICE  - STORY B1 1 RETURN AIR NODE,ZONE OFFICE WHOLEBUILDING - MD OFFICE  - STORY B1 1 PSZ-AC
 Return Air Path,2,ZONE OFFICE WHOLEBUILDING - MD OFFICE  - STORY B1 PSZ-AC RETURN PATH,ZONE OFFICE WHOLEBUILDING - MD OFFICE  - STORY B1 PSZ-AC
   #Components on Return Air Path,1
   Return Air Path Component,1,AIRLOOPHVAC:ZONEMIXER,AIR LOOP HVAC ZONE MIXER 1,ZONE OFFICE WHOLEBUILDING - MD OFFICE  - STORY B1 PSZ-AC
     #Inlet Nodes on Return Air Path Component,1
     Return Air Path Component Nodes,1,AIRLOOPHVAC:ZONEMIXER,AIR LOOP HVAC ZONE MIXER 1,ZONE OFFICE WHOLEBUILDING - MD OFFICE  - STORY B1 RETURN AIR NODE,ZONE OFFICE WHOLEBUILDING - MD OFFICE  - STORY B1 PSZ-AC DEMAND OUTLET NODE,ZONE OFFICE WHOLEBUILDING - MD OFFICE  - STORY B1 PSZ-AC
! <#Nodes on Return Air Path>,<Number of Nodes>
! <Return Air Path Node>,<Node Type>,<Node Count>,<Node Name>,<AirLoopHVAC Name>
   #Nodes on Return Air Path,2
   Return Air Path Node,Outlet Node,1,ZONE OFFICE WHOLEBUILDING - MD OFFICE  - STORY B1 PSZ-AC DEMAND OUTLET NODE,ZONE OFFICE WHOLEBUILDING - MD OFFICE  - STORY B1 PSZ-AC
   Return Air Path Node,Inlet Node,2,ZONE OFFICE WHOLEBUILDING - MD OFFICE  - STORY B1 RETURN AIR NODE,ZONE OFFICE WHOLEBUILDING - MD OFFICE  - STORY B1 PSZ-AC
 Return Air Path,3,ZONE OFFICE WHOLEBUILDING - MD OFFICE  - STORY GROUND 1 PSZ-AC RETURN PATH,ZONE OFFICE WHOLEBUILDING - MD OFFICE  - STORY GROUND 1 PSZ-AC
   #Components on Return Air Path,1
   Return Air Path Component,1,AIRLOOPHVAC:ZONEMIXER,AIR LOOP HVAC ZONE MIXER 4,ZONE OFFICE WHOLEBUILDING - MD OFFICE  - STORY GROUND 1 PSZ-AC
     #Inlet Nodes on Return Air Path Component,1
     Return Air Path Component Nodes,1,AIRLOOPHVAC:ZONEMIXER,AIR LOOP HVAC ZONE MIXER 4,ZONE OFFICE WHOLEBUILDING - MD OFFICE  - STORY GROUND 1 RETURN AIR NODE,ZONE OFFICE WHOLEBUILDING - MD OFFICE  - STORY GROUND 1 PSZ-AC DEMAND OUTLET NODE,ZONE OFFICE WHOLEBUILDING - MD OFFICE  - STORY GROUND 1 PSZ-AC
! <#Nodes on Return Air Path>,<Number of Nodes>
! <Return Air Path Node>,<Node Type>,<Node Count>,<Node Name>,<AirLoopHVAC Name>
   #Nodes on Return Air Path,2
   Return Air Path Node,Outlet Node,1,ZONE OFFICE WHOLEBUILDING - MD OFFICE  - STORY GROUND 1 PSZ-AC DEMAND OUTLET NODE,ZONE OFFICE WHOLEBUILDING - MD OFFICE  - STORY GROUND 1 PSZ-AC
   Return Air Path Node,Inlet Node,2,ZONE OFFICE WHOLEBUILDING - MD OFFICE  - STORY GROUND 1 RETURN AIR NODE,ZONE OFFICE WHOLEBUILDING - MD OFFICE  - STORY GROUND 1 PSZ-AC
 Return Air Path,4,ZONE OFFICE WHOLEBUILDING - MD OFFICE  - STORY GROUND PSZ-AC RETURN PATH,ZONE OFFICE WHOLEBUILDING - MD OFFICE  - STORY GROUND PSZ-AC
   #Components on Return Air Path,1
   Return Air Path Component,1,AIRLOOPHVAC:ZONEMIXER,AIR LOOP HVAC ZONE MIXER 3,ZONE OFFICE WHOLEBUILDING - MD OFFICE  - STORY GROUND PSZ-AC
     #Inlet Nodes on Return Air Path Component,1
     Return Air Path Component Nodes,1,AIRLOOPHVAC:ZONEMIXER,AIR LOOP HVAC ZONE MIXER 3,ZONE OFFICE WHOLEBUILDING - MD OFFICE  - STORY GROUND RETURN AIR NODE,ZONE OFFICE WHOLEBUILDING - MD OFFICE  - STORY GROUND PSZ-AC DEMAND OUTLET NODE,ZONE OFFICE WHOLEBUILDING - MD OFFICE  - STORY GROUND PSZ-AC
! <#Nodes on Return Air Path>,<Number of Nodes>
! <Return Air Path Node>,<Node Type>,<Node Count>,<Node Name>,<AirLoopHVAC Name>
   #Nodes on Return Air Path,2
   Return Air Path Node,Outlet Node,1,ZONE OFFICE WHOLEBUILDING - MD OFFICE  - STORY GROUND PSZ-AC DEMAND OUTLET NODE,ZONE OFFICE WHOLEBUILDING - MD OFFICE  - STORY GROUND PSZ-AC
   Return Air Path Node,Inlet Node,2,ZONE OFFICE WHOLEBUILDING - MD OFFICE  - STORY GROUND RETURN AIR NODE,ZONE OFFICE WHOLEBUILDING - MD OFFICE  - STORY GROUND PSZ-AC
 Return Air Path,5,ZONE OFFICE WHOLEBUILDING - MD OFFICE  - STORY TOP 1 PSZ-AC RETURN PATH,ZONE OFFICE WHOLEBUILDING - MD OFFICE  - STORY TOP 1 PSZ-AC
   #Components on Return Air Path,1
   Return Air Path Component,1,AIRLOOPHVAC:ZONEMIXER,AIR LOOP HVAC ZONE MIXER 6,ZONE OFFICE WHOLEBUILDING - MD OFFICE  - STORY TOP 1 PSZ-AC
     #Inlet Nodes on Return Air Path Component,1
     Return Air Path Component Nodes,1,AIRLOOPHVAC:ZONEMIXER,AIR LOOP HVAC ZONE MIXER 6,ZONE OFFICE WHOLEBUILDING - MD OFFICE  - STORY TOP 1 RETURN AIR NODE,ZONE OFFICE WHOLEBUILDING - MD OFFICE  - STORY TOP 1 PSZ-AC DEMAND OUTLET NODE,ZONE OFFICE WHOLEBUILDING - MD OFFICE  - STORY TOP 1 PSZ-AC
! <#Nodes on Return Air Path>,<Number of Nodes>
! <Return Air Path Node>,<Node Type>,<Node Count>,<Node Name>,<AirLoopHVAC Name>
   #Nodes on Return Air Path,2
   Return Air Path Node,Outlet Node,1,ZONE OFFICE WHOLEBUILDING - MD OFFICE  - STORY TOP 1 PSZ-AC DEMAND OUTLET NODE,ZONE OFFICE WHOLEBUILDING - MD OFFICE  - STORY TOP 1 PSZ-AC
   Return Air Path Node,Inlet Node,2,ZONE OFFICE WHOLEBUILDING - MD OFFICE  - STORY TOP 1 RETURN AIR NODE,ZONE OFFICE WHOLEBUILDING - MD OFFICE  - STORY TOP 1 PSZ-AC
 Return Air Path,6,ZONE OFFICE WHOLEBUILDING - MD OFFICE  - STORY TOP PSZ-AC RETURN PATH,ZONE OFFICE WHOLEBUILDING - MD OFFICE  - STORY TOP PSZ-AC
   #Components on Return Air Path,1
   Return Air Path Component,1,AIRLOOPHVAC:ZONEMIXER,AIR LOOP HVAC ZONE MIXER 5,ZONE OFFICE WHOLEBUILDING - MD OFFICE  - STORY TOP PSZ-AC
     #Inlet Nodes on Return Air Path Component,1
     Return Air Path Component Nodes,1,AIRLOOPHVAC:ZONEMIXER,AIR LOOP HVAC ZONE MIXER 5,ZONE OFFICE WHOLEBUILDING - MD OFFICE  - STORY TOP RETURN AIR NODE,ZONE OFFICE WHOLEBUILDING - MD OFFICE  - STORY TOP PSZ-AC DEMAND OUTLET NODE,ZONE OFFICE WHOLEBUILDING - MD OFFICE  - STORY TOP PSZ-AC
! <#Nodes on Return Air Path>,<Number of Nodes>
! <Return Air Path Node>,<Node Type>,<Node Count>,<Node Name>,<AirLoopHVAC Name>
   #Nodes on Return Air Path,2
   Return Air Path Node,Outlet Node,1,ZONE OFFICE WHOLEBUILDING - MD OFFICE  - STORY TOP PSZ-AC DEMAND OUTLET NODE,ZONE OFFICE WHOLEBUILDING - MD OFFICE  - STORY TOP PSZ-AC
   Return Air Path Node,Inlet Node,2,ZONE OFFICE WHOLEBUILDING - MD OFFICE  - STORY TOP RETURN AIR NODE,ZONE OFFICE WHOLEBUILDING - MD OFFICE  - STORY TOP PSZ-AC
! ===============================================================
! #Outdoor Air Nodes,<Number of Outdoor Air Nodes>
 #Outdoor Air Nodes,7
! <Outdoor Air Node>,<NodeNumber>,<Node Name>
 Outdoor Air Node,101,ZONE OFFICE WHOLEBUILDING - MD OFFICE  - STORY B1 1 PSZ-AC OUTDOOR AIR NODE
 Outdoor Air Node,102,ZONE OFFICE WHOLEBUILDING - MD OFFICE  - STORY B1 PSZ-AC OUTDOOR AIR NODE
 Outdoor Air Node,103,ZONE OFFICE WHOLEBUILDING - MD OFFICE  - STORY GROUND 1 PSZ-AC OUTDOOR AIR NODE
 Outdoor Air Node,104,ZONE OFFICE WHOLEBUILDING - MD OFFICE  - STORY GROUND PSZ-AC OUTDOOR AIR NODE
 Outdoor Air Node,105,ZONE OFFICE WHOLEBUILDING - MD OFFICE  - STORY TOP 1 PSZ-AC OUTDOOR AIR NODE
 Outdoor Air Node,106,ZONE OFFICE WHOLEBUILDING - MD OFFICE  - STORY TOP PSZ-AC OUTDOOR AIR NODE
 Outdoor Air Node,107,MODEL OUTDOOR AIR NODE
! ===============================================================
! <#Component Sets>,<Number of Component Sets>
 #Component Sets,65
! <Component Set>,<Component Set Count>,<Parent Object Type>,<Parent Object Name>,<Component Type>,<Component Name>,<Inlet Node ID>,<Outlet Node ID>,<Description>
 Component Set,1,BRANCH,ZONE OFFICE WHOLEBUILDING - MD OFFICE  - STORY B1 1 PSZ-AC MAIN BRANCH,AIRLOOPHVAC:OUTDOORAIRSYSTEM,ZONE OFFICE WHOLEBUILDING - MD OFFICE  - STORY B1 1 PSZ-AC OA SYSTEM,ZONE OFFICE WHOLEBUILDING - MD OFFICE  - STORY B1 1 PSZ-AC SUPPLY INLET NODE,ZONE OFFICE WHOLEBUILDING - MD OFFICE  - STORY B1 1 PSZ-AC MIXED AIR NODE,Air Nodes
 Component Set,2,BRANCH,ZONE OFFICE WHOLEBUILDING - MD OFFICE  - STORY B1 1 PSZ-AC MAIN BRANCH,COILSYSTEM:COOLING:DX,ZONE OFFICE WHOLEBUILDING - MD OFFICE  - STORY B1 1 PSZ-AC 1SPD DX AC CLG COIL COILSYSTEM,ZONE OFFICE WHOLEBUILDING - MD OFFICE  - STORY B1 1 PSZ-AC MIXED AIR NODE,ZONE OFFICE WHOLEBUILDING - MD OFFICE  - STORY B1 1 PSZ-AC 1SPD DX AC CLG COIL OUTLET AIR NODE,Air Nodes
 Component Set,3,BRANCH,ZONE OFFICE WHOLEBUILDING - MD OFFICE  - STORY B1 1 PSZ-AC MAIN BRANCH,COIL:HEATING:FUEL,ZONE OFFICE WHOLEBUILDING - MD OFFICE  - STORY B1 1 PSZ-AC GAS HTG COIL,ZONE OFFICE WHOLEBUILDING - MD OFFICE  - STORY B1 1 PSZ-AC 1SPD DX AC CLG COIL OUTLET AIR NODE,ZONE OFFICE WHOLEBUILDING - MD OFFICE  - STORY B1 1 PSZ-AC GAS HTG COIL OUTLET AIR NODE,Air Nodes
 Component Set,4,BRANCH,ZONE OFFICE WHOLEBUILDING - MD OFFICE  - STORY B1 1 PSZ-AC MAIN BRANCH,COIL:HEATING:ELECTRIC,ZONE OFFICE WHOLEBUILDING - MD OFFICE  - STORY B1 1 PSZ-AC ELECTRIC BACKUP HTG COIL,ZONE OFFICE WHOLEBUILDING - MD OFFICE  - STORY B1 1 PSZ-AC GAS HTG COIL OUTLET AIR NODE,ZONE OFFICE WHOLEBUILDING - MD OFFICE  - STORY B1 1 PSZ-AC ELECTRIC BACKUP HTG COIL OUTLET AIR NODE,Air Nodes
 Component Set,5,BRANCH,ZONE OFFICE WHOLEBUILDING - MD OFFICE  - STORY B1 1 PSZ-AC MAIN BRANCH,FAN:CONSTANTVOLUME,ZONE OFFICE WHOLEBUILDING - MD OFFICE  - STORY B1 1 PSZ-AC FAN,ZONE OFFICE WHOLEBUILDING - MD OFFICE  - STORY B1 1 PSZ-AC ELECTRIC BACKUP HTG COIL OUTLET AIR NODE,ZONE OFFICE WHOLEBUILDING - MD OFFICE  - STORY B1 1 PSZ-AC SUPPLY OUTLET NODE,Air Nodes
 Component Set,6,BRANCH,ZONE OFFICE WHOLEBUILDING - MD OFFICE  - STORY B1 PSZ-AC MAIN BRANCH,AIRLOOPHVAC:OUTDOORAIRSYSTEM,ZONE OFFICE WHOLEBUILDING - MD OFFICE  - STORY B1 PSZ-AC OA SYSTEM,ZONE OFFICE WHOLEBUILDING - MD OFFICE  - STORY B1 PSZ-AC SUPPLY INLET NODE,ZONE OFFICE WHOLEBUILDING - MD OFFICE  - STORY B1 PSZ-AC MIXED AIR NODE,Air Nodes
 Component Set,7,BRANCH,ZONE OFFICE WHOLEBUILDING - MD OFFICE  - STORY B1 PSZ-AC MAIN BRANCH,COILSYSTEM:COOLING:DX,ZONE OFFICE WHOLEBUILDING - MD OFFICE  - STORY B1 PSZ-AC 1SPD DX AC CLG COIL COILSYSTEM,ZONE OFFICE WHOLEBUILDING - MD OFFICE  - STORY B1 PSZ-AC MIXED AIR NODE,ZONE OFFICE WHOLEBUILDING - MD OFFICE  - STORY B1 PSZ-AC 1SPD DX AC CLG COIL OUTLET AIR NODE,Air Nodes
 Component Set,8,BRANCH,ZONE OFFICE WHOLEBUILDING - MD OFFICE  - STORY B1 PSZ-AC MAIN BRANCH,COIL:HEATING:FUEL,ZONE OFFICE WHOLEBUILDING - MD OFFICE  - STORY B1 PSZ-AC GAS HTG COIL,ZONE OFFICE WHOLEBUILDING - MD OFFICE  - STORY B1 PSZ-AC 1SPD DX AC CLG COIL OUTLET AIR NODE,ZONE OFFICE WHOLEBUILDING - MD OFFICE  - STORY B1 PSZ-AC GAS HTG COIL OUTLET AIR NODE,Air Nodes
 Component Set,9,BRANCH,ZONE OFFICE WHOLEBUILDING - MD OFFICE  - STORY B1 PSZ-AC MAIN BRANCH,COIL:HEATING:ELECTRIC,ZONE OFFICE WHOLEBUILDING - MD OFFICE  - STORY B1 PSZ-AC ELECTRIC BACKUP HTG COIL,ZONE OFFICE WHOLEBUILDING - MD OFFICE  - STORY B1 PSZ-AC GAS HTG COIL OUTLET AIR NODE,ZONE OFFICE WHOLEBUILDING - MD OFFICE  - STORY B1 PSZ-AC ELECTRIC BACKUP HTG COIL OUTLET AIR NODE,Air Nodes
 Component Set,10,BRANCH,ZONE OFFICE WHOLEBUILDING - MD OFFICE  - STORY B1 PSZ-AC MAIN BRANCH,FAN:CONSTANTVOLUME,ZONE OFFICE WHOLEBUILDING - MD OFFICE  - STORY B1 PSZ-AC FAN,ZONE OFFICE WHOLEBUILDING - MD OFFICE  - STORY B1 PSZ-AC ELECTRIC BACKUP HTG COIL OUTLET AIR NODE,ZONE OFFICE WHOLEBUILDING - MD OFFICE  - STORY B1 PSZ-AC SUPPLY OUTLET NODE,Air Nodes
 Component Set,11,BRANCH,ZONE OFFICE WHOLEBUILDING - MD OFFICE  - STORY GROUND 1 PSZ-AC MAIN BRANCH,AIRLOOPHVAC:OUTDOORAIRSYSTEM,ZONE OFFICE WHOLEBUILDING - MD OFFICE  - STORY GROUND 1 PSZ-AC OA SYSTEM,ZONE OFFICE WHOLEBUILDING - MD OFFICE  - STORY GROUND 1 PSZ-AC SUPPLY INLET NODE,ZONE OFFICE WHOLEBUILDING - MD OFFICE  - STORY GROUND 1 PSZ-AC MIXED AIR NODE,Air Nodes
 Component Set,12,BRANCH,ZONE OFFICE WHOLEBUILDING - MD OFFICE  - STORY GROUND 1 PSZ-AC MAIN BRANCH,COILSYSTEM:COOLING:DX,ZONE OFFICE WHOLEBUILDING - MD OFFICE  - STORY GROUND 1 PSZ-AC 1SPD DX AC CLG COIL COILSYSTEM,ZONE OFFICE WHOLEBUILDING - MD OFFICE  - STORY GROUND 1 PSZ-AC MIXED AIR NODE,ZONE OFFICE WHOLEBUILDING - MD OFFICE  - STORY GROUND 1 PSZ-AC 1SPD DX AC CLG COIL OUTLET AIR NODE,Air Nodes
 Component Set,13,BRANCH,ZONE OFFICE WHOLEBUILDING - MD OFFICE  - STORY GROUND 1 PSZ-AC MAIN BRANCH,COIL:HEATING:FUEL,ZONE OFFICE WHOLEBUILDING - MD OFFICE  - STORY GROUND 1 PSZ-AC GAS HTG COIL,ZONE OFFICE WHOLEBUILDING - MD OFFICE  - STORY GROUND 1 PSZ-AC 1SPD DX AC CLG COIL OUTLET AIR NODE,ZONE OFFICE WHOLEBUILDING - MD OFFICE  - STORY GROUND 1 PSZ-AC GAS HTG COIL OUTLET AIR NODE,Air Nodes
 Component Set,14,BRANCH,ZONE OFFICE WHOLEBUILDING - MD OFFICE  - STORY GROUND 1 PSZ-AC MAIN BRANCH,COIL:HEATING:ELECTRIC,ZONE OFFICE WHOLEBUILDING - MD OFFICE  - STORY GROUND 1 PSZ-AC ELECTRIC BACKUP HTG COIL,ZONE OFFICE WHOLEBUILDING - MD OFFICE  - STORY GROUND 1 PSZ-AC GAS HTG COIL OUTLET AIR NODE,ZONE OFFICE WHOLEBUILDING - MD OFFICE  - STORY GROUND 1 PSZ-AC ELECTRIC BACKUP HTG COIL OUTLET AIR NODE,Air Nodes
 Component Set,15,BRANCH,ZONE OFFICE WHOLEBUILDING - MD OFFICE  - STORY GROUND 1 PSZ-AC MAIN BRANCH,FAN:CONSTANTVOLUME,ZONE OFFICE WHOLEBUILDING - MD OFFICE  - STORY GROUND 1 PSZ-AC FAN,ZONE OFFICE WHOLEBUILDING - MD OFFICE  - STORY GROUND 1 PSZ-AC ELECTRIC BACKUP HTG COIL OUTLET AIR NODE,ZONE OFFICE WHOLEBUILDING - MD OFFICE  - STORY GROUND 1 PSZ-AC SUPPLY OUTLET NODE,Air Nodes
 Component Set,16,BRANCH,ZONE OFFICE WHOLEBUILDING - MD OFFICE  - STORY GROUND PSZ-AC MAIN BRANCH,AIRLOOPHVAC:OUTDOORAIRSYSTEM,ZONE OFFICE WHOLEBUILDING - MD OFFICE  - STORY GROUND PSZ-AC OA SYSTEM,ZONE OFFICE WHOLEBUILDING - MD OFFICE  - STORY GROUND PSZ-AC SUPPLY INLET NODE,ZONE OFFICE WHOLEBUILDING - MD OFFICE  - STORY GROUND PSZ-AC MIXED AIR NODE,Air Nodes
 Component Set,17,BRANCH,ZONE OFFICE WHOLEBUILDING - MD OFFICE  - STORY GROUND PSZ-AC MAIN BRANCH,COILSYSTEM:COOLING:DX,ZONE OFFICE WHOLEBUILDING - MD OFFICE  - STORY GROUND PSZ-AC 1SPD DX AC CLG COIL COILSYSTEM,ZONE OFFICE WHOLEBUILDING - MD OFFICE  - STORY GROUND PSZ-AC MIXED AIR NODE,ZONE OFFICE WHOLEBUILDING - MD OFFICE  - STORY GROUND PSZ-AC 1SPD DX AC CLG COIL OUTLET AIR NODE,Air Nodes
 Component Set,18,BRANCH,ZONE OFFICE WHOLEBUILDING - MD OFFICE  - STORY GROUND PSZ-AC MAIN BRANCH,COIL:HEATING:FUEL,ZONE OFFICE WHOLEBUILDING - MD OFFICE  - STORY GROUND PSZ-AC GAS HTG COIL,ZONE OFFICE WHOLEBUILDING - MD OFFICE  - STORY GROUND PSZ-AC 1SPD DX AC CLG COIL OUTLET AIR NODE,ZONE OFFICE WHOLEBUILDING - MD OFFICE  - STORY GROUND PSZ-AC GAS HTG COIL OUTLET AIR NODE,Air Nodes
 Component Set,19,BRANCH,ZONE OFFICE WHOLEBUILDING - MD OFFICE  - STORY GROUND PSZ-AC MAIN BRANCH,COIL:HEATING:ELECTRIC,ZONE OFFICE WHOLEBUILDING - MD OFFICE  - STORY GROUND PSZ-AC ELECTRIC BACKUP HTG COIL,ZONE OFFICE WHOLEBUILDING - MD OFFICE  - STORY GROUND PSZ-AC GAS HTG COIL OUTLET AIR NODE,ZONE OFFICE WHOLEBUILDING - MD OFFICE  - STORY GROUND PSZ-AC ELECTRIC BACKUP HTG COIL OUTLET AIR NODE,Air Nodes
 Component Set,20,BRANCH,ZONE OFFICE WHOLEBUILDING - MD OFFICE  - STORY GROUND PSZ-AC MAIN BRANCH,FAN:CONSTANTVOLUME,ZONE OFFICE WHOLEBUILDING - MD OFFICE  - STORY GROUND PSZ-AC FAN,ZONE OFFICE WHOLEBUILDING - MD OFFICE  - STORY GROUND PSZ-AC ELECTRIC BACKUP HTG COIL OUTLET AIR NODE,ZONE OFFICE WHOLEBUILDING - MD OFFICE  - STORY GROUND PSZ-AC SUPPLY OUTLET NODE,Air Nodes
 Component Set,21,BRANCH,ZONE OFFICE WHOLEBUILDING - MD OFFICE  - STORY TOP 1 PSZ-AC MAIN BRANCH,AIRLOOPHVAC:OUTDOORAIRSYSTEM,ZONE OFFICE WHOLEBUILDING - MD OFFICE  - STORY TOP 1 PSZ-AC OA SYSTEM,ZONE OFFICE WHOLEBUILDING - MD OFFICE  - STORY TOP 1 PSZ-AC SUPPLY INLET NODE,ZONE OFFICE WHOLEBUILDING - MD OFFICE  - STORY TOP 1 PSZ-AC MIXED AIR NODE,Air Nodes
 Component Set,22,BRANCH,ZONE OFFICE WHOLEBUILDING - MD OFFICE  - STORY TOP 1 PSZ-AC MAIN BRANCH,COILSYSTEM:COOLING:DX,ZONE OFFICE WHOLEBUILDING - MD OFFICE  - STORY TOP 1 PSZ-AC 1SPD DX AC CLG COIL COILSYSTEM,ZONE OFFICE WHOLEBUILDING - MD OFFICE  - STORY TOP 1 PSZ-AC MIXED AIR NODE,ZONE OFFICE WHOLEBUILDING - MD OFFICE  - STORY TOP 1 PSZ-AC 1SPD DX AC CLG COIL OUTLET AIR NODE,Air Nodes
 Component Set,23,BRANCH,ZONE OFFICE WHOLEBUILDING - MD OFFICE  - STORY TOP 1 PSZ-AC MAIN BRANCH,COIL:HEATING:FUEL,ZONE OFFICE WHOLEBUILDING - MD OFFICE  - STORY TOP 1 PSZ-AC GAS HTG COIL,ZONE OFFICE WHOLEBUILDING - MD OFFICE  - STORY TOP 1 PSZ-AC 1SPD DX AC CLG COIL OUTLET AIR NODE,ZONE OFFICE WHOLEBUILDING - MD OFFICE  - STORY TOP 1 PSZ-AC GAS HTG COIL OUTLET AIR NODE,Air Nodes
 Component Set,24,BRANCH,ZONE OFFICE WHOLEBUILDING - MD OFFICE  - STORY TOP 1 PSZ-AC MAIN BRANCH,COIL:HEATING:ELECTRIC,ZONE OFFICE WHOLEBUILDING - MD OFFICE  - STORY TOP 1 PSZ-AC ELECTRIC BACKUP HTG COIL,ZONE OFFICE WHOLEBUILDING - MD OFFICE  - STORY TOP 1 PSZ-AC GAS HTG COIL OUTLET AIR NODE,ZONE OFFICE WHOLEBUILDING - MD OFFICE  - STORY TOP 1 PSZ-AC ELECTRIC BACKUP HTG COIL OUTLET AIR NODE,Air Nodes
 Component Set,25,BRANCH,ZONE OFFICE WHOLEBUILDING - MD OFFICE  - STORY TOP 1 PSZ-AC MAIN BRANCH,FAN:CONSTANTVOLUME,ZONE OFFICE WHOLEBUILDING - MD OFFICE  - STORY TOP 1 PSZ-AC FAN,ZONE OFFICE WHOLEBUILDING - MD OFFICE  - STORY TOP 1 PSZ-AC ELECTRIC BACKUP HTG COIL OUTLET AIR NODE,ZONE OFFICE WHOLEBUILDING - MD OFFICE  - STORY TOP 1 PSZ-AC SUPPLY OUTLET NODE,Air Nodes
 Component Set,26,BRANCH,ZONE OFFICE WHOLEBUILDING - MD OFFICE  - STORY TOP PSZ-AC MAIN BRANCH,AIRLOOPHVAC:OUTDOORAIRSYSTEM,ZONE OFFICE WHOLEBUILDING - MD OFFICE  - STORY TOP PSZ-AC OA SYSTEM,ZONE OFFICE WHOLEBUILDING - MD OFFICE  - STORY TOP PSZ-AC SUPPLY INLET NODE,ZONE OFFICE WHOLEBUILDING - MD OFFICE  - STORY TOP PSZ-AC MIXED AIR NODE,Air Nodes
 Component Set,27,BRANCH,ZONE OFFICE WHOLEBUILDING - MD OFFICE  - STORY TOP PSZ-AC MAIN BRANCH,COILSYSTEM:COOLING:DX,ZONE OFFICE WHOLEBUILDING - MD OFFICE  - STORY TOP PSZ-AC 1SPD DX AC CLG COIL COILSYSTEM,ZONE OFFICE WHOLEBUILDING - MD OFFICE  - STORY TOP PSZ-AC MIXED AIR NODE,ZONE OFFICE WHOLEBUILDING - MD OFFICE  - STORY TOP PSZ-AC 1SPD DX AC CLG COIL OUTLET AIR NODE,Air Nodes
 Component Set,28,BRANCH,ZONE OFFICE WHOLEBUILDING - MD OFFICE  - STORY TOP PSZ-AC MAIN BRANCH,COIL:HEATING:FUEL,ZONE OFFICE WHOLEBUILDING - MD OFFICE  - STORY TOP PSZ-AC GAS HTG COIL,ZONE OFFICE WHOLEBUILDING - MD OFFICE  - STORY TOP PSZ-AC 1SPD DX AC CLG COIL OUTLET AIR NODE,ZONE OFFICE WHOLEBUILDING - MD OFFICE  - STORY TOP PSZ-AC GAS HTG COIL OUTLET AIR NODE,Air Nodes
 Component Set,29,BRANCH,ZONE OFFICE WHOLEBUILDING - MD OFFICE  - STORY TOP PSZ-AC MAIN BRANCH,COIL:HEATING:ELECTRIC,ZONE OFFICE WHOLEBUILDING - MD OFFICE  - STORY TOP PSZ-AC ELECTRIC BACKUP HTG COIL,ZONE OFFICE WHOLEBUILDING - MD OFFICE  - STORY TOP PSZ-AC GAS HTG COIL OUTLET AIR NODE,ZONE OFFICE WHOLEBUILDING - MD OFFICE  - STORY TOP PSZ-AC ELECTRIC BACKUP HTG COIL OUTLET AIR NODE,Air Nodes
 Component Set,30,BRANCH,ZONE OFFICE WHOLEBUILDING - MD OFFICE  - STORY TOP PSZ-AC MAIN BRANCH,FAN:CONSTANTVOLUME,ZONE OFFICE WHOLEBUILDING - MD OFFICE  - STORY TOP PSZ-AC FAN,ZONE OFFICE WHOLEBUILDING - MD OFFICE  - STORY TOP PSZ-AC ELECTRIC BACKUP HTG COIL OUTLET AIR NODE,ZONE OFFICE WHOLEBUILDING - MD OFFICE  - STORY TOP PSZ-AC SUPPLY OUTLET NODE,Air Nodes
 Component Set,31,BRANCH,HOT WATER LOOP SUPPLY INLET BRANCH,PUMP:VARIABLESPEED,HOT WATER LOOP PUMP,HOT WATER LOOP SUPPLY INLET NODE,HOT WATER LOOP PUMP OUTLET WATER NODE,Water Nodes
 Component Set,32,BRANCH,HOT WATER LOOP SUPPLY BRANCH 1,BOILER:HOTWATER,BOILER,BOILER INLET WATER NODE,BOILER OUTLET WATER NODE,Hot Water Nodes
 Component Set,33,BRANCH,HOT WATER LOOP SUPPLY BRANCH 2,PIPE:ADIABATIC,HOT WATER LOOP SUPPLY EQUIPMENT BYPASS,HOT WATER LOOP SUPPLY EQUIPMENT BYPASS INLET WATER NODE,HOT WATER LOOP SUPPLY EQUIPMENT BYPASS OUTLET WATER NODE,Pipe Nodes
 Component Set,34,BRANCH,HOT WATER LOOP SUPPLY OUTLET BRANCH,PIPE:ADIABATIC,HOT WATER LOOP SUPPLY OUTLET,HOT WATER LOOP SUPPLY OUTLET INLET WATER NODE,HOT WATER LOOP SUPPLY OUTLET NODE,Pipe Nodes
 Component Set,35,BRANCH,HOT WATER LOOP DEMAND INLET BRANCH,PIPE:ADIABATIC,HOT WATER LOOP DEMAND INLET,HOT WATER LOOP DEMAND INLET NODE,HOT WATER LOOP DEMAND INLET OUTLET WATER NODE,Pipe Nodes
 Component Set,36,BRANCH,HOT WATER LOOP DEMAND BRANCH 1,PIPE:ADIABATIC,HOT WATER LOOP COIL BYPASS,HOT WATER LOOP COIL BYPASS INLET WATER NODE,HOT WATER LOOP COIL BYPASS OUTLET WATER NODE,Pipe Nodes
 Component Set,37,BRANCH,HOT WATER LOOP DEMAND BYPASS BRANCH,PIPE:ADIABATIC,HOT WATER LOOP DEMAND BYPASS PIPE,HOT WATER LOOP DEMAND BYPASS PIPE INLET NODE,HOT WATER LOOP DEMAND BYPASS PIPE OUTLET NODE,Pipe Nodes
 Component Set,38,BRANCH,HOT WATER LOOP DEMAND OUTLET BRANCH,PIPE:ADIABATIC,HOT WATER LOOP DEMAND OUTLET,HOT WATER LOOP DEMAND OUTLET INLET WATER NODE,HOT WATER LOOP DEMAND OUTLET NODE,Pipe Nodes
 Component Set,39,BRANCH,OFFICE SHARED SERVICE WATER LOOP SUPPLY INLET BRANCH,PUMP:CONSTANTSPEED,OFFICE SHARED SERVICE WATER LOOP CIRCULATOR PUMP,OFFICE SHARED SERVICE WATER LOOP SUPPLY INLET NODE,OFFICE SHARED SERVICE WATER LOOP CIRCULATOR PUMP OUTLET WATER NODE,Water Nodes
 Component Set,40,BRANCH,OFFICE SHARED SERVICE WATER LOOP SUPPLY BRANCH 1,WATERHEATER:MIXED,40GAL NATURALGAS WATER HEATER - 14KBTU/HR,40GAL NATURALGAS WATER HEATER - 14KBTU/HR SUPPLY INLET WATER NODE,40GAL NATURALGAS WATER HEATER - 14KBTU/HR SUPPLY OUTLET WATER NODE,Use Side Water Nodes
 Component Set,41,BRANCH,OFFICE SHARED SERVICE WATER LOOP SUPPLY BRANCH 2,PIPE:ADIABATIC,PIPE ADIABATIC 1,PIPE ADIABATIC 1 INLET WATER NODE,PIPE ADIABATIC 1 OUTLET WATER NODE,Pipe Nodes
 Component Set,42,BRANCH,OFFICE SHARED SERVICE WATER LOOP SUPPLY OUTLET BRANCH,PIPE:ADIABATIC,PIPE ADIABATIC 3,PIPE ADIABATIC 3 INLET WATER NODE,OFFICE SHARED SERVICE WATER LOOP SUPPLY OUTLET NODE,Pipe Nodes
 Component Set,43,BRANCH,OFFICE SHARED SERVICE WATER LOOP DEMAND INLET BRANCH,PIPE:INDOOR,OFFICE SHARED SERVICE WATER LOOP PIPE 222.57418583505543FT,OFFICE SHARED SERVICE WATER LOOP DEMAND INLET NODE,OFFICE SHARED SERVICE WATER LOOP PIPE 222.57418583505543FT OUTLET WATER NODE,Pipe Nodes
 Component Set,44,BRANCH,OFFICE SHARED SERVICE WATER LOOP DEMAND BRANCH 1,PIPE:ADIABATIC,PIPE ADIABATIC 2,PIPE ADIABATIC 2 INLET WATER NODE,PIPE ADIABATIC 2 OUTLET WATER NODE,Pipe Nodes
 Component Set,45,BRANCH,OFFICE SHARED SERVICE WATER LOOP DEMAND BRANCH 2,WATERUSE:CONNECTIONS,OFFICE WHOLEBUILDING - MD OFFICE - 90.1-2004 WUC 0.4GPM AT 140F,OFFICE WHOLEBUILDING - MD OFFICE - 90.1-2004 WUC 0.4GPM AT 140F INLET WATER NODE,OFFICE WHOLEBUILDING - MD OFFICE - 90.1-2004 WUC 0.4GPM AT 140F OUTLET WATER NODE,DHW Nodes
 Component Set,46,BRANCH,OFFICE SHARED SERVICE WATER LOOP DEMAND BYPASS BRANCH,PIPE:ADIABATIC,OFFICE SHARED SERVICE WATER LOOP DEMAND BYPASS PIPE,OFFICE SHARED SERVICE WATER LOOP DEMAND BYPASS PIPE INLET NODE,OFFICE SHARED SERVICE WATER LOOP DEMAND BYPASS PIPE OUTLET NODE,Pipe Nodes
 Component Set,47,BRANCH,OFFICE SHARED SERVICE WATER LOOP DEMAND OUTLET BRANCH,PIPE:ADIABATIC,PIPE ADIABATIC 4,PIPE ADIABATIC 4 INLET WATER NODE,OFFICE SHARED SERVICE WATER LOOP DEMAND OUTLET NODE,Pipe Nodes
 Component Set,48,ZONEHVAC:AIRDISTRIBUTIONUNIT,ADU ZONE OFFICE WHOLEBUILDING - MD OFFICE  - STORY B1 PSZ-AC DIFFUSER,AIRTERMINAL:SINGLEDUCT:CONSTANTVOLUME:NOREHEAT,ZONE OFFICE WHOLEBUILDING - MD OFFICE  - STORY B1 PSZ-AC DIFFUSER,ZONE OFFICE WHOLEBUILDING - MD OFFICE  - STORY B1 PSZ-AC DIFFUSER INLET AIR NODE,ZONE OFFICE WHOLEBUILDING - MD OFFICE  - STORY B1 PSZ-AC DIFFUSER OUTLET AIR NODE,Air Nodes
 Component Set,49,ZONEHVAC:AIRDISTRIBUTIONUNIT,ADU ZONE OFFICE WHOLEBUILDING - MD OFFICE  - STORY B1 1 PSZ-AC DIFFUSER,AIRTERMINAL:SINGLEDUCT:CONSTANTVOLUME:NOREHEAT,ZONE OFFICE WHOLEBUILDING - MD OFFICE  - STORY B1 1 PSZ-AC DIFFUSER,ZONE OFFICE WHOLEBUILDING - MD OFFICE  - STORY B1 1 PSZ-AC DIFFUSER INLET AIR NODE,ZONE OFFICE WHOLEBUILDING - MD OFFICE  - STORY B1 1 PSZ-AC DIFFUSER OUTLET AIR NODE,Air Nodes
 Component Set,50,ZONEHVAC:AIRDISTRIBUTIONUNIT,ADU ZONE OFFICE WHOLEBUILDING - MD OFFICE  - STORY GROUND PSZ-AC DIFFUSER,AIRTERMINAL:SINGLEDUCT:CONSTANTVOLUME:NOREHEAT,ZONE OFFICE WHOLEBUILDING - MD OFFICE  - STORY GROUND PSZ-AC DIFFUSER,ZONE OFFICE WHOLEBUILDING - MD OFFICE  - STORY GROUND PSZ-AC DIFFUSER INLET AIR NODE,ZONE OFFICE WHOLEBUILDING - MD OFFICE  - STORY GROUND PSZ-AC DIFFUSER OUTLET AIR NODE,Air Nodes
 Component Set,51,ZONEHVAC:AIRDISTRIBUTIONUNIT,ADU ZONE OFFICE WHOLEBUILDING - MD OFFICE  - STORY GROUND 1 PSZ-AC DIFFUSER,AIRTERMINAL:SINGLEDUCT:CONSTANTVOLUME:NOREHEAT,ZONE OFFICE WHOLEBUILDING - MD OFFICE  - STORY GROUND 1 PSZ-AC DIFFUSER,ZONE OFFICE WHOLEBUILDING - MD OFFICE  - STORY GROUND 1 PSZ-AC DIFFUSER INLET AIR NODE,ZONE OFFICE WHOLEBUILDING - MD OFFICE  - STORY GROUND 1 PSZ-AC DIFFUSER OUTLET AIR NODE,Air Nodes
 Component Set,52,ZONEHVAC:AIRDISTRIBUTIONUNIT,ADU ZONE OFFICE WHOLEBUILDING - MD OFFICE  - STORY TOP PSZ-AC DIFFUSER,AIRTERMINAL:SINGLEDUCT:CONSTANTVOLUME:NOREHEAT,ZONE OFFICE WHOLEBUILDING - MD OFFICE  - STORY TOP PSZ-AC DIFFUSER,ZONE OFFICE WHOLEBUILDING - MD OFFICE  - STORY TOP PSZ-AC DIFFUSER INLET AIR NODE,ZONE OFFICE WHOLEBUILDING - MD OFFICE  - STORY TOP PSZ-AC DIFFUSER OUTLET AIR NODE,Air Nodes
 Component Set,53,ZONEHVAC:AIRDISTRIBUTIONUNIT,ADU ZONE OFFICE WHOLEBUILDING - MD OFFICE  - STORY TOP 1 PSZ-AC DIFFUSER,AIRTERMINAL:SINGLEDUCT:CONSTANTVOLUME:NOREHEAT,ZONE OFFICE WHOLEBUILDING - MD OFFICE  - STORY TOP 1 PSZ-AC DIFFUSER,ZONE OFFICE WHOLEBUILDING - MD OFFICE  - STORY TOP 1 PSZ-AC DIFFUSER INLET AIR NODE,ZONE OFFICE WHOLEBUILDING - MD OFFICE  - STORY TOP 1 PSZ-AC DIFFUSER OUTLET AIR NODE,Air Nodes
 Component Set,54,AIRLOOPHVAC:OUTDOORAIRSYSTEM,ZONE OFFICE WHOLEBUILDING - MD OFFICE  - STORY B1 1 PSZ-AC OA SYSTEM,OUTDOORAIR:MIXER,ZONE OFFICE WHOLEBUILDING - MD OFFICE  - STORY B1 1 PSZ-AC OA SYSTEM OUTDOOR AIR MIXER,ZONE OFFICE WHOLEBUILDING - MD OFFICE  - STORY B1 1 PSZ-AC OUTDOOR AIR NODE,ZONE OFFICE WHOLEBUILDING - MD OFFICE  - STORY B1 1 PSZ-AC MIXED AIR NODE,Air Nodes
 Component Set,55,AIRLOOPHVAC:OUTDOORAIRSYSTEM,ZONE OFFICE WHOLEBUILDING - MD OFFICE  - STORY B1 PSZ-AC OA SYSTEM,OUTDOORAIR:MIXER,ZONE OFFICE WHOLEBUILDING - MD OFFICE  - STORY B1 PSZ-AC OA SYSTEM OUTDOOR AIR MIXER,ZONE OFFICE WHOLEBUILDING - MD OFFICE  - STORY B1 PSZ-AC OUTDOOR AIR NODE,ZONE OFFICE WHOLEBUILDING - MD OFFICE  - STORY B1 PSZ-AC MIXED AIR NODE,Air Nodes
 Component Set,56,AIRLOOPHVAC:OUTDOORAIRSYSTEM,ZONE OFFICE WHOLEBUILDING - MD OFFICE  - STORY GROUND 1 PSZ-AC OA SYSTEM,OUTDOORAIR:MIXER,ZONE OFFICE WHOLEBUILDING - MD OFFICE  - STORY GROUND 1 PSZ-AC OA SYSTEM OUTDOOR AIR MIXER,ZONE OFFICE WHOLEBUILDING - MD OFFICE  - STORY GROUND 1 PSZ-AC OUTDOOR AIR NODE,ZONE OFFICE WHOLEBUILDING - MD OFFICE  - STORY GROUND 1 PSZ-AC MIXED AIR NODE,Air Nodes
 Component Set,57,AIRLOOPHVAC:OUTDOORAIRSYSTEM,ZONE OFFICE WHOLEBUILDING - MD OFFICE  - STORY GROUND PSZ-AC OA SYSTEM,OUTDOORAIR:MIXER,ZONE OFFICE WHOLEBUILDING - MD OFFICE  - STORY GROUND PSZ-AC OA SYSTEM OUTDOOR AIR MIXER,ZONE OFFICE WHOLEBUILDING - MD OFFICE  - STORY GROUND PSZ-AC OUTDOOR AIR NODE,ZONE OFFICE WHOLEBUILDING - MD OFFICE  - STORY GROUND PSZ-AC MIXED AIR NODE,Air Nodes
 Component Set,58,AIRLOOPHVAC:OUTDOORAIRSYSTEM,ZONE OFFICE WHOLEBUILDING - MD OFFICE  - STORY TOP 1 PSZ-AC OA SYSTEM,OUTDOORAIR:MIXER,ZONE OFFICE WHOLEBUILDING - MD OFFICE  - STORY TOP 1 PSZ-AC OA SYSTEM OUTDOOR AIR MIXER,ZONE OFFICE WHOLEBUILDING - MD OFFICE  - STORY TOP 1 PSZ-AC OUTDOOR AIR NODE,ZONE OFFICE WHOLEBUILDING - MD OFFICE  - STORY TOP 1 PSZ-AC MIXED AIR NODE,Air Nodes
 Component Set,59,AIRLOOPHVAC:OUTDOORAIRSYSTEM,ZONE OFFICE WHOLEBUILDING - MD OFFICE  - STORY TOP PSZ-AC OA SYSTEM,OUTDOORAIR:MIXER,ZONE OFFICE WHOLEBUILDING - MD OFFICE  - STORY TOP PSZ-AC OA SYSTEM OUTDOOR AIR MIXER,ZONE OFFICE WHOLEBUILDING - MD OFFICE  - STORY TOP PSZ-AC OUTDOOR AIR NODE,ZONE OFFICE WHOLEBUILDING - MD OFFICE  - STORY TOP PSZ-AC MIXED AIR NODE,Air Nodes
 Component Set,60,COILSYSTEM:COOLING:DX,ZONE OFFICE WHOLEBUILDING - MD OFFICE  - STORY B1 1 PSZ-AC 1SPD DX AC CLG COIL COILSYSTEM,COIL:COOLING:DX:SINGLESPEED,ZONE OFFICE WHOLEBUILDING - MD OFFICE  - STORY B1 1 PSZ-AC 1SPD DX AC CLG COIL,ZONE OFFICE WHOLEBUILDING - MD OFFICE  - STORY B1 1 PSZ-AC MIXED AIR NODE,ZONE OFFICE WHOLEBUILDING - MD OFFICE  - STORY B1 1 PSZ-AC 1SPD DX AC CLG COIL OUTLET AIR NODE,Air Nodes
 Component Set,61,COILSYSTEM:COOLING:DX,ZONE OFFICE WHOLEBUILDING - MD OFFICE  - STORY B1 PSZ-AC 1SPD DX AC CLG COIL COILSYSTEM,COIL:COOLING:DX:SINGLESPEED,ZONE OFFICE WHOLEBUILDING - MD OFFICE  - STORY B1 PSZ-AC 1SPD DX AC CLG COIL,ZONE OFFICE WHOLEBUILDING - MD OFFICE  - STORY B1 PSZ-AC MIXED AIR NODE,ZONE OFFICE WHOLEBUILDING - MD OFFICE  - STORY B1 PSZ-AC 1SPD DX AC CLG COIL OUTLET AIR NODE,Air Nodes
 Component Set,62,COILSYSTEM:COOLING:DX,ZONE OFFICE WHOLEBUILDING - MD OFFICE  - STORY GROUND 1 PSZ-AC 1SPD DX AC CLG COIL COILSYSTEM,COIL:COOLING:DX:SINGLESPEED,ZONE OFFICE WHOLEBUILDING - MD OFFICE  - STORY GROUND 1 PSZ-AC 1SPD DX AC CLG COIL,ZONE OFFICE WHOLEBUILDING - MD OFFICE  - STORY GROUND 1 PSZ-AC MIXED AIR NODE,ZONE OFFICE WHOLEBUILDING - MD OFFICE  - STORY GROUND 1 PSZ-AC 1SPD DX AC CLG COIL OUTLET AIR NODE,Air Nodes
 Component Set,63,COILSYSTEM:COOLING:DX,ZONE OFFICE WHOLEBUILDING - MD OFFICE  - STORY GROUND PSZ-AC 1SPD DX AC CLG COIL COILSYSTEM,COIL:COOLING:DX:SINGLESPEED,ZONE OFFICE WHOLEBUILDING - MD OFFICE  - STORY GROUND PSZ-AC 1SPD DX AC CLG COIL,ZONE OFFICE WHOLEBUILDING - MD OFFICE  - STORY GROUND PSZ-AC MIXED AIR NODE,ZONE OFFICE WHOLEBUILDING - MD OFFICE  - STORY GROUND PSZ-AC 1SPD DX AC CLG COIL OUTLET AIR NODE,Air Nodes
 Component Set,64,COILSYSTEM:COOLING:DX,ZONE OFFICE WHOLEBUILDING - MD OFFICE  - STORY TOP 1 PSZ-AC 1SPD DX AC CLG COIL COILSYSTEM,COIL:COOLING:DX:SINGLESPEED,ZONE OFFICE WHOLEBUILDING - MD OFFICE  - STORY TOP 1 PSZ-AC 1SPD DX AC CLG COIL,ZONE OFFICE WHOLEBUILDING - MD OFFICE  - STORY TOP 1 PSZ-AC MIXED AIR NODE,ZONE OFFICE WHOLEBUILDING - MD OFFICE  - STORY TOP 1 PSZ-AC 1SPD DX AC CLG COIL OUTLET AIR NODE,Air Nodes
 Component Set,65,COILSYSTEM:COOLING:DX,ZONE OFFICE WHOLEBUILDING - MD OFFICE  - STORY TOP PSZ-AC 1SPD DX AC CLG COIL COILSYSTEM,COIL:COOLING:DX:SINGLESPEED,ZONE OFFICE WHOLEBUILDING - MD OFFICE  - STORY TOP PSZ-AC 1SPD DX AC CLG COIL,ZONE OFFICE WHOLEBUILDING - MD OFFICE  - STORY TOP PSZ-AC MIXED AIR NODE,ZONE OFFICE WHOLEBUILDING - MD OFFICE  - STORY TOP PSZ-AC 1SPD DX AC CLG COIL OUTLET AIR NODE,Air Nodes
! ===============================================================
! <# Plant Loops>,<Number of Plant Loops>
 #Plant Loops,2
! <Plant Loop>,<Plant Loop Name>,<Loop Type>,<Inlet Node Name>,<Outlet Node Name>,<Branch List>,<Connector List>
! <Plant Loop Connector>,<Connector Type>,<Connector Name>,<Loop Name>,<Loop Type>,<Number of Inlets/Outlets>
! <Plant Loop Connector Branches>,<Connector Node Count>,<Connector Type>,<Connector Name>,<Inlet Branch>,<Outlet Branch>,<Loop Name>,<Loop Type>
! <Plant Loop Connector Nodes>,<Connector Node Count>,<Connector Type>,<Connector Name>,<Inlet Node>,<Outlet Node>,<Loop Name>,<Loop Type>
! <Plant Loop Supply Connection>,<Plant Loop Name>,<Supply Side Outlet Node Name>,<Demand Side Inlet Node Name>
! <Plant Loop Return Connection>,<Plant Loop Name>,<Demand Side Outlet Node Name>,<Supply Side Inlet Node Name>
 Plant Loop,HOT WATER LOOP,Demand,HOT WATER LOOP DEMAND INLET NODE,HOT WATER LOOP DEMAND OUTLET NODE,HOT WATER LOOP DEMAND BRANCHES,HOT WATER LOOP DEMAND CONNECTOR LIST
   Plant Loop Connector,Splitter,HOT WATER LOOP DEMAND SPLITTER,HOT WATER LOOP,Demand,2
     Plant Loop Connector Branches,1,Splitter,HOT WATER LOOP DEMAND SPLITTER,HOT WATER LOOP DEMAND INLET BRANCH,HOT WATER LOOP DEMAND BRANCH 1,HOT WATER LOOP,Demand
     Plant Loop Connector Nodes,   1,Splitter,HOT WATER LOOP DEMAND SPLITTER,HOT WATER LOOP DEMAND INLET OUTLET WATER NODE,HOT WATER LOOP COIL BYPASS INLET WATER NODE,HOT WATER LOOP,Demand
     Plant Loop Connector Branches,2,Splitter,HOT WATER LOOP DEMAND SPLITTER,HOT WATER LOOP DEMAND INLET BRANCH,HOT WATER LOOP DEMAND BYPASS BRANCH,HOT WATER LOOP,Demand
     Plant Loop Connector Nodes,   2,Splitter,HOT WATER LOOP DEMAND SPLITTER,HOT WATER LOOP DEMAND INLET OUTLET WATER NODE,HOT WATER LOOP DEMAND BYPASS PIPE INLET NODE,HOT WATER LOOP,Demand
   Plant Loop Connector,Mixer,HOT WATER LOOP DEMAND MIXER,HOT WATER LOOP,Demand,2
     Plant Loop Connector Branches,1,Mixer,HOT WATER LOOP DEMAND MIXER,HOT WATER LOOP DEMAND BRANCH 1,HOT WATER LOOP DEMAND OUTLET BRANCH,HOT WATER LOOP,Demand
     Plant Loop Connector Nodes,   1,Mixer,HOT WATER LOOP DEMAND MIXER,HOT WATER LOOP COIL BYPASS OUTLET WATER NODE,HOT WATER LOOP DEMAND OUTLET INLET WATER NODE,HOT WATER LOOP,Demand
     Plant Loop Connector Branches,2,Mixer,HOT WATER LOOP DEMAND MIXER,HOT WATER LOOP DEMAND BYPASS BRANCH,HOT WATER LOOP DEMAND OUTLET BRANCH,HOT WATER LOOP,Demand
     Plant Loop Connector Nodes,   2,Mixer,HOT WATER LOOP DEMAND MIXER,HOT WATER LOOP DEMAND BYPASS PIPE OUTLET NODE,HOT WATER LOOP DEMAND OUTLET INLET WATER NODE,HOT WATER LOOP,Demand
 Plant Loop,HOT WATER LOOP,Supply,HOT WATER LOOP SUPPLY INLET NODE,HOT WATER LOOP SUPPLY OUTLET NODE,HOT WATER LOOP SUPPLY BRANCHES,HOT WATER LOOP SUPPLY CONNECTOR LIST
   Plant Loop Connector,Splitter,HOT WATER LOOP SUPPLY SPLITTER,HOT WATER LOOP,Supply,2
     Plant Loop Connector Branches,1,Splitter,HOT WATER LOOP SUPPLY SPLITTER,HOT WATER LOOP SUPPLY INLET BRANCH,HOT WATER LOOP SUPPLY BRANCH 1,HOT WATER LOOP,Supply
     Plant Loop Connector Nodes,   1,Splitter,HOT WATER LOOP SUPPLY SPLITTER,HOT WATER LOOP PUMP OUTLET WATER NODE,BOILER INLET WATER NODE,HOT WATER LOOP,Supply
     Plant Loop Connector Branches,2,Splitter,HOT WATER LOOP SUPPLY SPLITTER,HOT WATER LOOP SUPPLY INLET BRANCH,HOT WATER LOOP SUPPLY BRANCH 2,HOT WATER LOOP,Supply
     Plant Loop Connector Nodes,   2,Splitter,HOT WATER LOOP SUPPLY SPLITTER,HOT WATER LOOP PUMP OUTLET WATER NODE,HOT WATER LOOP SUPPLY EQUIPMENT BYPASS INLET WATER NODE,HOT WATER LOOP,Supply
   Plant Loop Connector,Mixer,HOT WATER LOOP SUPPLY MIXER,HOT WATER LOOP,Supply,2
     Plant Loop Connector Branches,1,Mixer,HOT WATER LOOP SUPPLY MIXER,HOT WATER LOOP SUPPLY BRANCH 1,HOT WATER LOOP SUPPLY OUTLET BRANCH,HOT WATER LOOP,Supply
     Plant Loop Connector Nodes,   1,Mixer,HOT WATER LOOP SUPPLY MIXER,BOILER OUTLET WATER NODE,HOT WATER LOOP SUPPLY OUTLET INLET WATER NODE,HOT WATER LOOP,Supply
     Plant Loop Connector Branches,2,Mixer,HOT WATER LOOP SUPPLY MIXER,HOT WATER LOOP SUPPLY BRANCH 2,HOT WATER LOOP SUPPLY OUTLET BRANCH,HOT WATER LOOP,Supply
     Plant Loop Connector Nodes,   2,Mixer,HOT WATER LOOP SUPPLY MIXER,HOT WATER LOOP SUPPLY EQUIPMENT BYPASS OUTLET WATER NODE,HOT WATER LOOP SUPPLY OUTLET INLET WATER NODE,HOT WATER LOOP,Supply
 Plant Loop Supply Connection,HOT WATER LOOP,HOT WATER LOOP SUPPLY OUTLET NODE,HOT WATER LOOP DEMAND INLET NODE
 Plant Loop Return Connection,HOT WATER LOOP,HOT WATER LOOP DEMAND OUTLET NODE,HOT WATER LOOP SUPPLY INLET NODE
 Plant Loop,OFFICE SHARED SERVICE WATER LOOP,Demand,OFFICE SHARED SERVICE WATER LOOP DEMAND INLET NODE,OFFICE SHARED SERVICE WATER LOOP DEMAND OUTLET NODE,OFFICE SHARED SERVICE WATER LOOP DEMAND BRANCHES,OFFICE SHARED SERVICE WATER LOOP DEMAND CONNECTOR LIST
   Plant Loop Connector,Splitter,OFFICE SHARED SERVICE WATER LOOP DEMAND SPLITTER,OFFICE SHARED SERVICE WATER LOOP,Demand,3
     Plant Loop Connector Branches,1,Splitter,OFFICE SHARED SERVICE WATER LOOP DEMAND SPLITTER,OFFICE SHARED SERVICE WATER LOOP DEMAND INLET BRANCH,OFFICE SHARED SERVICE WATER LOOP DEMAND BRANCH 1,OFFICE SHARED SERVICE WATER LOOP,Demand
     Plant Loop Connector Nodes,   1,Splitter,OFFICE SHARED SERVICE WATER LOOP DEMAND SPLITTER,OFFICE SHARED SERVICE WATER LOOP PIPE 222.57418583505543FT OUTLET WATER NODE,PIPE ADIABATIC 2 INLET WATER NODE,OFFICE SHARED SERVICE WATER LOOP,Demand
     Plant Loop Connector Branches,2,Splitter,OFFICE SHARED SERVICE WATER LOOP DEMAND SPLITTER,OFFICE SHARED SERVICE WATER LOOP DEMAND INLET BRANCH,OFFICE SHARED SERVICE WATER LOOP DEMAND BRANCH 2,OFFICE SHARED SERVICE WATER LOOP,Demand
     Plant Loop Connector Nodes,   2,Splitter,OFFICE SHARED SERVICE WATER LOOP DEMAND SPLITTER,OFFICE SHARED SERVICE WATER LOOP PIPE 222.57418583505543FT OUTLET WATER NODE,OFFICE WHOLEBUILDING - MD OFFICE - 90.1-2004 WUC 0.4GPM AT 140F INLET WATER NODE,OFFICE SHARED SERVICE WATER LOOP,Demand
     Plant Loop Connector Branches,3,Splitter,OFFICE SHARED SERVICE WATER LOOP DEMAND SPLITTER,OFFICE SHARED SERVICE WATER LOOP DEMAND INLET BRANCH,OFFICE SHARED SERVICE WATER LOOP DEMAND BYPASS BRANCH,OFFICE SHARED SERVICE WATER LOOP,Demand
     Plant Loop Connector Nodes,   3,Splitter,OFFICE SHARED SERVICE WATER LOOP DEMAND SPLITTER,OFFICE SHARED SERVICE WATER LOOP PIPE 222.57418583505543FT OUTLET WATER NODE,OFFICE SHARED SERVICE WATER LOOP DEMAND BYPASS PIPE INLET NODE,OFFICE SHARED SERVICE WATER LOOP,Demand
   Plant Loop Connector,Mixer,OFFICE SHARED SERVICE WATER LOOP DEMAND MIXER,OFFICE SHARED SERVICE WATER LOOP,Demand,3
     Plant Loop Connector Branches,1,Mixer,OFFICE SHARED SERVICE WATER LOOP DEMAND MIXER,OFFICE SHARED SERVICE WATER LOOP DEMAND BRANCH 1,OFFICE SHARED SERVICE WATER LOOP DEMAND OUTLET BRANCH,OFFICE SHARED SERVICE WATER LOOP,Demand
     Plant Loop Connector Nodes,   1,Mixer,OFFICE SHARED SERVICE WATER LOOP DEMAND MIXER,PIPE ADIABATIC 2 OUTLET WATER NODE,PIPE ADIABATIC 4 INLET WATER NODE,OFFICE SHARED SERVICE WATER LOOP,Demand
     Plant Loop Connector Branches,2,Mixer,OFFICE SHARED SERVICE WATER LOOP DEMAND MIXER,OFFICE SHARED SERVICE WATER LOOP DEMAND BRANCH 2,OFFICE SHARED SERVICE WATER LOOP DEMAND OUTLET BRANCH,OFFICE SHARED SERVICE WATER LOOP,Demand
     Plant Loop Connector Nodes,   2,Mixer,OFFICE SHARED SERVICE WATER LOOP DEMAND MIXER,OFFICE WHOLEBUILDING - MD OFFICE - 90.1-2004 WUC 0.4GPM AT 140F OUTLET WATER NODE,PIPE ADIABATIC 4 INLET WATER NODE,OFFICE SHARED SERVICE WATER LOOP,Demand
     Plant Loop Connector Branches,3,Mixer,OFFICE SHARED SERVICE WATER LOOP DEMAND MIXER,OFFICE SHARED SERVICE WATER LOOP DEMAND BYPASS BRANCH,OFFICE SHARED SERVICE WATER LOOP DEMAND OUTLET BRANCH,OFFICE SHARED SERVICE WATER LOOP,Demand
     Plant Loop Connector Nodes,   3,Mixer,OFFICE SHARED SERVICE WATER LOOP DEMAND MIXER,OFFICE SHARED SERVICE WATER LOOP DEMAND BYPASS PIPE OUTLET NODE,PIPE ADIABATIC 4 INLET WATER NODE,OFFICE SHARED SERVICE WATER LOOP,Demand
 Plant Loop,OFFICE SHARED SERVICE WATER LOOP,Supply,OFFICE SHARED SERVICE WATER LOOP SUPPLY INLET NODE,OFFICE SHARED SERVICE WATER LOOP SUPPLY OUTLET NODE,OFFICE SHARED SERVICE WATER LOOP SUPPLY BRANCHES,OFFICE SHARED SERVICE WATER LOOP SUPPLY CONNECTOR LIST
   Plant Loop Connector,Splitter,OFFICE SHARED SERVICE WATER LOOP SUPPLY SPLITTER,OFFICE SHARED SERVICE WATER LOOP,Supply,2
     Plant Loop Connector Branches,1,Splitter,OFFICE SHARED SERVICE WATER LOOP SUPPLY SPLITTER,OFFICE SHARED SERVICE WATER LOOP SUPPLY INLET BRANCH,OFFICE SHARED SERVICE WATER LOOP SUPPLY BRANCH 1,OFFICE SHARED SERVICE WATER LOOP,Supply
     Plant Loop Connector Nodes,   1,Splitter,OFFICE SHARED SERVICE WATER LOOP SUPPLY SPLITTER,OFFICE SHARED SERVICE WATER LOOP CIRCULATOR PUMP OUTLET WATER NODE,40GAL NATURALGAS WATER HEATER - 14KBTU/HR SUPPLY INLET WATER NODE,OFFICE SHARED SERVICE WATER LOOP,Supply
     Plant Loop Connector Branches,2,Splitter,OFFICE SHARED SERVICE WATER LOOP SUPPLY SPLITTER,OFFICE SHARED SERVICE WATER LOOP SUPPLY INLET BRANCH,OFFICE SHARED SERVICE WATER LOOP SUPPLY BRANCH 2,OFFICE SHARED SERVICE WATER LOOP,Supply
     Plant Loop Connector Nodes,   2,Splitter,OFFICE SHARED SERVICE WATER LOOP SUPPLY SPLITTER,OFFICE SHARED SERVICE WATER LOOP CIRCULATOR PUMP OUTLET WATER NODE,PIPE ADIABATIC 1 INLET WATER NODE,OFFICE SHARED SERVICE WATER LOOP,Supply
   Plant Loop Connector,Mixer,OFFICE SHARED SERVICE WATER LOOP SUPPLY MIXER,OFFICE SHARED SERVICE WATER LOOP,Supply,2
     Plant Loop Connector Branches,1,Mixer,OFFICE SHARED SERVICE WATER LOOP SUPPLY MIXER,OFFICE SHARED SERVICE WATER LOOP SUPPLY BRANCH 1,OFFICE SHARED SERVICE WATER LOOP SUPPLY OUTLET BRANCH,OFFICE SHARED SERVICE WATER LOOP,Supply
     Plant Loop Connector Nodes,   1,Mixer,OFFICE SHARED SERVICE WATER LOOP SUPPLY MIXER,40GAL NATURALGAS WATER HEATER - 14KBTU/HR SUPPLY OUTLET WATER NODE,PIPE ADIABATIC 3 INLET WATER NODE,OFFICE SHARED SERVICE WATER LOOP,Supply
     Plant Loop Connector Branches,2,Mixer,OFFICE SHARED SERVICE WATER LOOP SUPPLY MIXER,OFFICE SHARED SERVICE WATER LOOP SUPPLY BRANCH 2,OFFICE SHARED SERVICE WATER LOOP SUPPLY OUTLET BRANCH,OFFICE SHARED SERVICE WATER LOOP,Supply
     Plant Loop Connector Nodes,   2,Mixer,OFFICE SHARED SERVICE WATER LOOP SUPPLY MIXER,PIPE ADIABATIC 1 OUTLET WATER NODE,PIPE ADIABATIC 3 INLET WATER NODE,OFFICE SHARED SERVICE WATER LOOP,Supply
 Plant Loop Supply Connection,OFFICE SHARED SERVICE WATER LOOP,OFFICE SHARED SERVICE WATER LOOP SUPPLY OUTLET NODE,OFFICE SHARED SERVICE WATER LOOP DEMAND INLET NODE
 Plant Loop Return Connection,OFFICE SHARED SERVICE WATER LOOP,OFFICE SHARED SERVICE WATER LOOP DEMAND OUTLET NODE,OFFICE SHARED SERVICE WATER LOOP SUPPLY INLET NODE
! ===============================================================
! <# Condenser Loops>,<Number of Condenser Loops>
 #Condenser Loops,0
! <Condenser Loop>,<Condenser Loop Name>,<Loop Type>,<Inlet Node Name>,<Outlet Node Name>,<Branch List>,<Connector List>
! <Condenser Loop Connector>,<Connector Type>,<Connector Name>,<Loop Name>,<Loop Type>,<Number of Inlets/Outlets>
! <Condenser Loop Connector Branches>,<Connector Node Count>,<Connector Type>,<Connector Name>,<Inlet Branch>,<Outlet Branch>,<Loop Name>,<Loop Type>
! <Condenser Loop Connector Nodes>,<Connector Node Count>,<Connector Type>,<Connector Name>,<Inlet Node>,<Outlet Node>,<Loop Name>,<Loop Type>
! <Condenser Loop Supply Connection>,<Condenser Loop Name>,<Supply Side Outlet Node Name>,<Demand Side Inlet Node Name>
! <Condenser Loop Return Connection>,<Condenser Loop Name>,<Demand Side Outlet Node Name>,<Supply Side Inlet Node Name>
! ===============================================================
! <# Controlled Zones>,<Number of Controlled Zones>
 #Controlled Zones,6
! <Controlled Zone>,<Controlled Zone Name>,<Equip List Name>,<Control List Name>,<Zone Node Name>,<# Inlet Nodes>,<# Exhaust Nodes>,<# Return Nodes>
! <Controlled Zone Inlet>,<Inlet Node Count>,<Controlled Zone Name>,<Supply Air Inlet Node Name>,<SD Sys:Cooling/Heating [DD:Cooling] Inlet Node Name>,<DD Sys:Heating Inlet Node Name>
! <Controlled Zone Exhaust>,<Exhaust Node Count>,<Controlled Zone Name>,<Exhaust Air Node Name>
 Controlled Zone,ZONE OFFICE WHOLEBUILDING - MD OFFICE  - STORY B1,ZONE OFFICE WHOLEBUILDING - MD OFFICE  - STORY B1 EQUIPMENT LIST,,ZONE OFFICE WHOLEBUILDING - MD OFFICE  - STORY B1 ZONE AIR NODE,1,0,1
   Controlled Zone Inlet,1,ZONE OFFICE WHOLEBUILDING - MD OFFICE  - STORY B1,ZONE OFFICE WHOLEBUILDING - MD OFFICE  - STORY B1 PSZ-AC DIFFUSER OUTLET AIR NODE,ZONE OFFICE WHOLEBUILDING - MD OFFICE  - STORY B1 PSZ-AC DIFFUSER INLET AIR NODE,N/A
   Controlled Zone Return,1,ZONE OFFICE WHOLEBUILDING - MD OFFICE  - STORY B1,ZONE OFFICE WHOLEBUILDING - MD OFFICE  - STORY B1 RETURN AIR NODE
 Controlled Zone,ZONE OFFICE WHOLEBUILDING - MD OFFICE  - STORY B1 1,ZONE OFFICE WHOLEBUILDING - MD OFFICE  - STORY B1 1 EQUIPMENT LIST,,ZONE OFFICE WHOLEBUILDING - MD OFFICE  - STORY B1 1 ZONE AIR NODE,1,0,1
   Controlled Zone Inlet,1,ZONE OFFICE WHOLEBUILDING - MD OFFICE  - STORY B1 1,ZONE OFFICE WHOLEBUILDING - MD OFFICE  - STORY B1 1 PSZ-AC DIFFUSER OUTLET AIR NODE,ZONE OFFICE WHOLEBUILDING - MD OFFICE  - STORY B1 1 PSZ-AC DIFFUSER INLET AIR NODE,N/A
   Controlled Zone Return,1,ZONE OFFICE WHOLEBUILDING - MD OFFICE  - STORY B1 1,ZONE OFFICE WHOLEBUILDING - MD OFFICE  - STORY B1 1 RETURN AIR NODE
 Controlled Zone,ZONE OFFICE WHOLEBUILDING - MD OFFICE  - STORY GROUND,ZONE OFFICE WHOLEBUILDING - MD OFFICE  - STORY GROUND EQUIPMENT LIST,,ZONE OFFICE WHOLEBUILDING - MD OFFICE  - STORY GROUND ZONE AIR NODE,1,0,1
   Controlled Zone Inlet,1,ZONE OFFICE WHOLEBUILDING - MD OFFICE  - STORY GROUND,ZONE OFFICE WHOLEBUILDING - MD OFFICE  - STORY GROUND PSZ-AC DIFFUSER OUTLET AIR NODE,ZONE OFFICE WHOLEBUILDING - MD OFFICE  - STORY GROUND PSZ-AC DIFFUSER INLET AIR NODE,N/A
   Controlled Zone Return,1,ZONE OFFICE WHOLEBUILDING - MD OFFICE  - STORY GROUND,ZONE OFFICE WHOLEBUILDING - MD OFFICE  - STORY GROUND RETURN AIR NODE
 Controlled Zone,ZONE OFFICE WHOLEBUILDING - MD OFFICE  - STORY GROUND 1,ZONE OFFICE WHOLEBUILDING - MD OFFICE  - STORY GROUND 1 EQUIPMENT LIST,,ZONE OFFICE WHOLEBUILDING - MD OFFICE  - STORY GROUND 1 ZONE AIR NODE,1,0,1
   Controlled Zone Inlet,1,ZONE OFFICE WHOLEBUILDING - MD OFFICE  - STORY GROUND 1,ZONE OFFICE WHOLEBUILDING - MD OFFICE  - STORY GROUND 1 PSZ-AC DIFFUSER OUTLET AIR NODE,ZONE OFFICE WHOLEBUILDING - MD OFFICE  - STORY GROUND 1 PSZ-AC DIFFUSER INLET AIR NODE,N/A
   Controlled Zone Return,1,ZONE OFFICE WHOLEBUILDING - MD OFFICE  - STORY GROUND 1,ZONE OFFICE WHOLEBUILDING - MD OFFICE  - STORY GROUND 1 RETURN AIR NODE
 Controlled Zone,ZONE OFFICE WHOLEBUILDING - MD OFFICE  - STORY TOP,ZONE OFFICE WHOLEBUILDING - MD OFFICE  - STORY TOP EQUIPMENT LIST,,ZONE OFFICE WHOLEBUILDING - MD OFFICE  - STORY TOP ZONE AIR NODE,1,0,1
   Controlled Zone Inlet,1,ZONE OFFICE WHOLEBUILDING - MD OFFICE  - STORY TOP,ZONE OFFICE WHOLEBUILDING - MD OFFICE  - STORY TOP PSZ-AC DIFFUSER OUTLET AIR NODE,ZONE OFFICE WHOLEBUILDING - MD OFFICE  - STORY TOP PSZ-AC DIFFUSER INLET AIR NODE,N/A
   Controlled Zone Return,1,ZONE OFFICE WHOLEBUILDING - MD OFFICE  - STORY TOP,ZONE OFFICE WHOLEBUILDING - MD OFFICE  - STORY TOP RETURN AIR NODE
 Controlled Zone,ZONE OFFICE WHOLEBUILDING - MD OFFICE  - STORY TOP 1,ZONE OFFICE WHOLEBUILDING - MD OFFICE  - STORY TOP 1 EQUIPMENT LIST,,ZONE OFFICE WHOLEBUILDING - MD OFFICE  - STORY TOP 1 ZONE AIR NODE,1,0,1
   Controlled Zone Inlet,1,ZONE OFFICE WHOLEBUILDING - MD OFFICE  - STORY TOP 1,ZONE OFFICE WHOLEBUILDING - MD OFFICE  - STORY TOP 1 PSZ-AC DIFFUSER OUTLET AIR NODE,ZONE OFFICE WHOLEBUILDING - MD OFFICE  - STORY TOP 1 PSZ-AC DIFFUSER INLET AIR NODE,N/A
   Controlled Zone Return,1,ZONE OFFICE WHOLEBUILDING - MD OFFICE  - STORY TOP 1,ZONE OFFICE WHOLEBUILDING - MD OFFICE  - STORY TOP 1 RETURN AIR NODE
! ===============================================================
! <#Zone Equipment Lists>,<Number of Zone Equipment Lists>
 #Zone Equipment Lists,6
! <Zone Equipment List>,<Zone Equipment List Count>,<Zone Equipment List Name>,<Zone Name>,<Number of Components>
! <Zone Equipment Component>,<Component Count>,<Component Type>,<Component Name>,<Zone Name>,<Heating Priority>,<Cooling Priority>
 Zone Equipment List,1,ZONE OFFICE WHOLEBUILDING - MD OFFICE  - STORY B1 EQUIPMENT LIST,ZONE OFFICE WHOLEBUILDING - MD OFFICE  - STORY B1,1
   Zone Equipment Component,1,ZONEHVAC:AIRDISTRIBUTIONUNIT,ADU ZONE OFFICE WHOLEBUILDING - MD OFFICE  - STORY B1 PSZ-AC DIFFUSER,ZONE OFFICE WHOLEBUILDING - MD OFFICE  - STORY B1,1,1
 Zone Equipment List,2,ZONE OFFICE WHOLEBUILDING - MD OFFICE  - STORY B1 1 EQUIPMENT LIST,ZONE OFFICE WHOLEBUILDING - MD OFFICE  - STORY B1 1,1
   Zone Equipment Component,1,ZONEHVAC:AIRDISTRIBUTIONUNIT,ADU ZONE OFFICE WHOLEBUILDING - MD OFFICE  - STORY B1 1 PSZ-AC DIFFUSER,ZONE OFFICE WHOLEBUILDING - MD OFFICE  - STORY B1 1,1,1
 Zone Equipment List,3,ZONE OFFICE WHOLEBUILDING - MD OFFICE  - STORY GROUND EQUIPMENT LIST,ZONE OFFICE WHOLEBUILDING - MD OFFICE  - STORY GROUND,1
   Zone Equipment Component,1,ZONEHVAC:AIRDISTRIBUTIONUNIT,ADU ZONE OFFICE WHOLEBUILDING - MD OFFICE  - STORY GROUND PSZ-AC DIFFUSER,ZONE OFFICE WHOLEBUILDING - MD OFFICE  - STORY GROUND,1,1
 Zone Equipment List,4,ZONE OFFICE WHOLEBUILDING - MD OFFICE  - STORY GROUND 1 EQUIPMENT LIST,ZONE OFFICE WHOLEBUILDING - MD OFFICE  - STORY GROUND 1,1
   Zone Equipment Component,1,ZONEHVAC:AIRDISTRIBUTIONUNIT,ADU ZONE OFFICE WHOLEBUILDING - MD OFFICE  - STORY GROUND 1 PSZ-AC DIFFUSER,ZONE OFFICE WHOLEBUILDING - MD OFFICE  - STORY GROUND 1,1,1
 Zone Equipment List,5,ZONE OFFICE WHOLEBUILDING - MD OFFICE  - STORY TOP EQUIPMENT LIST,ZONE OFFICE WHOLEBUILDING - MD OFFICE  - STORY TOP,1
   Zone Equipment Component,1,ZONEHVAC:AIRDISTRIBUTIONUNIT,ADU ZONE OFFICE WHOLEBUILDING - MD OFFICE  - STORY TOP PSZ-AC DIFFUSER,ZONE OFFICE WHOLEBUILDING - MD OFFICE  - STORY TOP,1,1
 Zone Equipment List,6,ZONE OFFICE WHOLEBUILDING - MD OFFICE  - STORY TOP 1 EQUIPMENT LIST,ZONE OFFICE WHOLEBUILDING - MD OFFICE  - STORY TOP 1,1
   Zone Equipment Component,1,ZONEHVAC:AIRDISTRIBUTIONUNIT,ADU ZONE OFFICE WHOLEBUILDING - MD OFFICE  - STORY TOP 1 PSZ-AC DIFFUSER,ZONE OFFICE WHOLEBUILDING - MD OFFICE  - STORY TOP 1,1,1
! ===============================================================
! <#AirLoopHVACs>,<Number of AirLoopHVACs>
 #AirLoopHVACs,6
! <AirLoopHVAC>,<Air Loop Name>,<# Return Nodes>,<# Supply Nodes>,<# Zones Cooled>,<# Zones Heated>,<Outdoor Air Used>
! <AirLoop Return Connections>,<Connection Count>,<AirLoopHVAC Name>,<Zn Eqp Return Node #>,<Zn Eqp Return Node Name>,<AirLoop Return Node #>,<Air Loop Return Node Name>
! <AirLoop Supply Connections>,<Connection Count>,<AirLoopHVAC Name>,<Zn Eqp Supply Node #>,<Zn Eqp Supply Node Name>,<AirLoop Supply Node #>,<Air Loop Supply Node Name>
! <Cooled Zone Info>,<Cooled Zone Count>,<Cooled Zone Name>,<Cooled Zone Inlet Node #>,<Cooled Zone Inlet Node Name>,<AirLoopHVAC Name>
! <Heated Zone Info>,<Heated Zone Count>,<Heated Zone Name>,<Heated Zone Inlet Node #>,<Heated Zone Inlet Node Name>,<AirLoopHVAC Name>
! <Outdoor Air Connections>,<OA Inlet Node #>,<OA Return Air Inlet Node Name>,<OA Outlet Node #>,<OA Mixed Air Outlet Node Name>,<AirLoopHVAC Name>
! <AirLoopHVAC Connector>,<Connector Type>,<Connector Name>,<Loop Name>,<Loop Type>,<Number of Inlets/Outlets>
! <AirLoopHVAC Connector Branches>,<Connector Node Count>,<Connector Type>,<Connector Name>,<Inlet Branch>,<Outlet Branch>,<Loop Name>,<Loop Type>
! <AirLoopHVAC Connector Nodes>,<Connector Node Count>,<Connector Type>,<Connector Name>,<Inlet Node>,<Outlet Node>,<Loop Name>,<Loop Type>
 AirLoopHVAC,ZONE OFFICE WHOLEBUILDING - MD OFFICE  - STORY B1 1 PSZ-AC,1,1,1,0,Yes
   AirLoop Return Connections,1,ZONE OFFICE WHOLEBUILDING - MD OFFICE  - STORY B1 1 PSZ-AC,95,ZONE OFFICE WHOLEBUILDING - MD OFFICE  - STORY B1 1 PSZ-AC DEMAND OUTLET NODE,25,ZONE OFFICE WHOLEBUILDING - MD OFFICE  - STORY B1 1 PSZ-AC SUPPLY INLET NODE
   AirLoop Supply Connections,1,ZONE OFFICE WHOLEBUILDING - MD OFFICE  - STORY B1 1 PSZ-AC,14,ZONE OFFICE WHOLEBUILDING - MD OFFICE  - STORY B1 1 PSZ-AC DEMAND INLET NODE,13,ZONE OFFICE WHOLEBUILDING - MD OFFICE  - STORY B1 1 PSZ-AC SUPPLY OUTLET NODE
   Cooled Zone Info,1,ZONE OFFICE WHOLEBUILDING - MD OFFICE  - STORY B1 1,3,ZONE OFFICE WHOLEBUILDING - MD OFFICE  - STORY B1 1 PSZ-AC DIFFUSER OUTLET AIR NODE,ZONE OFFICE WHOLEBUILDING - MD OFFICE  - STORY B1 1 PSZ-AC
   Outdoor Air Connections,25,ZONE OFFICE WHOLEBUILDING - MD OFFICE  - STORY B1 1 PSZ-AC SUPPLY INLET NODE,26,ZONE OFFICE WHOLEBUILDING - MD OFFICE  - STORY B1 1 PSZ-AC MIXED AIR NODE,ZONE OFFICE WHOLEBUILDING - MD OFFICE  - STORY B1 1 PSZ-AC
 AirLoopHVAC,ZONE OFFICE WHOLEBUILDING - MD OFFICE  - STORY B1 PSZ-AC,1,1,1,0,Yes
   AirLoop Return Connections,1,ZONE OFFICE WHOLEBUILDING - MD OFFICE  - STORY B1 PSZ-AC,96,ZONE OFFICE WHOLEBUILDING - MD OFFICE  - STORY B1 PSZ-AC DEMAND OUTLET NODE,30,ZONE OFFICE WHOLEBUILDING - MD OFFICE  - STORY B1 PSZ-AC SUPPLY INLET NODE
   AirLoop Supply Connections,1,ZONE OFFICE WHOLEBUILDING - MD OFFICE  - STORY B1 PSZ-AC,16,ZONE OFFICE WHOLEBUILDING - MD OFFICE  - STORY B1 PSZ-AC DEMAND INLET NODE,15,ZONE OFFICE WHOLEBUILDING - MD OFFICE  - STORY B1 PSZ-AC SUPPLY OUTLET NODE
   Cooled Zone Info,1,ZONE OFFICE WHOLEBUILDING - MD OFFICE  - STORY B1,1,ZONE OFFICE WHOLEBUILDING - MD OFFICE  - STORY B1 PSZ-AC DIFFUSER OUTLET AIR NODE,ZONE OFFICE WHOLEBUILDING - MD OFFICE  - STORY B1 PSZ-AC
   Outdoor Air Connections,30,ZONE OFFICE WHOLEBUILDING - MD OFFICE  - STORY B1 PSZ-AC SUPPLY INLET NODE,31,ZONE OFFICE WHOLEBUILDING - MD OFFICE  - STORY B1 PSZ-AC MIXED AIR NODE,ZONE OFFICE WHOLEBUILDING - MD OFFICE  - STORY B1 PSZ-AC
 AirLoopHVAC,ZONE OFFICE WHOLEBUILDING - MD OFFICE  - STORY GROUND 1 PSZ-AC,1,1,1,0,Yes
   AirLoop Return Connections,1,ZONE OFFICE WHOLEBUILDING - MD OFFICE  - STORY GROUND 1 PSZ-AC,97,ZONE OFFICE WHOLEBUILDING - MD OFFICE  - STORY GROUND 1 PSZ-AC DEMAND OUTLET NODE,35,ZONE OFFICE WHOLEBUILDING - MD OFFICE  - STORY GROUND 1 PSZ-AC SUPPLY INLET NODE
   AirLoop Supply Connections,1,ZONE OFFICE WHOLEBUILDING - MD OFFICE  - STORY GROUND 1 PSZ-AC,18,ZONE OFFICE WHOLEBUILDING - MD OFFICE  - STORY GROUND 1 PSZ-AC DEMAND INLET NODE,17,ZONE OFFICE WHOLEBUILDING - MD OFFICE  - STORY GROUND 1 PSZ-AC SUPPLY OUTLET NODE
[...]
 Non-Parent Node Connection,ZONE OFFICE WHOLEBUILDING - MD OFFICE  - STORY TOP PSZ-AC OUTDOOR AIR NODE,OUTDOORAIR:MIXER,ZONE OFFICE WHOLEBUILDING - MD OFFICE  - STORY TOP PSZ-AC OA SYSTEM OUTDOOR AIR MIXER,Inlet,1
 Non-Parent Node Connection,ZONE OFFICE WHOLEBUILDING - MD OFFICE  - STORY TOP PSZ-AC RELIEF AIR NODE,OUTDOORAIR:MIXER,ZONE OFFICE WHOLEBUILDING - MD OFFICE  - STORY TOP PSZ-AC OA SYSTEM OUTDOOR AIR MIXER,ReliefAir,1
 Non-Parent Node Connection,ZONE OFFICE WHOLEBUILDING - MD OFFICE  - STORY TOP PSZ-AC SUPPLY INLET NODE,OUTDOORAIR:MIXER,ZONE OFFICE WHOLEBUILDING - MD OFFICE  - STORY TOP PSZ-AC OA SYSTEM OUTDOOR AIR MIXER,Inlet,1
 Non-Parent Node Connection,ZONE OFFICE WHOLEBUILDING - MD OFFICE  - STORY B1 1 PSZ-AC ELECTRIC BACKUP HTG COIL OUTLET AIR NODE,FAN:CONSTANTVOLUME,ZONE OFFICE WHOLEBUILDING - MD OFFICE  - STORY B1 1 PSZ-AC FAN,Inlet,1
 Non-Parent Node Connection,ZONE OFFICE WHOLEBUILDING - MD OFFICE  - STORY B1 1 PSZ-AC SUPPLY OUTLET NODE,FAN:CONSTANTVOLUME,ZONE OFFICE WHOLEBUILDING - MD OFFICE  - STORY B1 1 PSZ-AC FAN,Outlet,1
 Non-Parent Node Connection,ZONE OFFICE WHOLEBUILDING - MD OFFICE  - STORY B1 PSZ-AC ELECTRIC BACKUP HTG COIL OUTLET AIR NODE,FAN:CONSTANTVOLUME,ZONE OFFICE WHOLEBUILDING - MD OFFICE  - STORY B1 PSZ-AC FAN,Inlet,1
 Non-Parent Node Connection,ZONE OFFICE WHOLEBUILDING - MD OFFICE  - STORY B1 PSZ-AC SUPPLY OUTLET NODE,FAN:CONSTANTVOLUME,ZONE OFFICE WHOLEBUILDING - MD OFFICE  - STORY B1 PSZ-AC FAN,Outlet,1
 Non-Parent Node Connection,ZONE OFFICE WHOLEBUILDING - MD OFFICE  - STORY GROUND 1 PSZ-AC ELECTRIC BACKUP HTG COIL OUTLET AIR NODE,FAN:CONSTANTVOLUME,ZONE OFFICE WHOLEBUILDING - MD OFFICE  - STORY GROUND 1 PSZ-AC FAN,Inlet,1
 Non-Parent Node Connection,ZONE OFFICE WHOLEBUILDING - MD OFFICE  - STORY GROUND 1 PSZ-AC SUPPLY OUTLET NODE,FAN:CONSTANTVOLUME,ZONE OFFICE WHOLEBUILDING - MD OFFICE  - STORY GROUND 1 PSZ-AC FAN,Outlet,1
 Non-Parent Node Connection,ZONE OFFICE WHOLEBUILDING - MD OFFICE  - STORY GROUND PSZ-AC ELECTRIC BACKUP HTG COIL OUTLET AIR NODE,FAN:CONSTANTVOLUME,ZONE OFFICE WHOLEBUILDING - MD OFFICE  - STORY GROUND PSZ-AC FAN,Inlet,1
 Non-Parent Node Connection,ZONE OFFICE WHOLEBUILDING - MD OFFICE  - STORY GROUND PSZ-AC SUPPLY OUTLET NODE,FAN:CONSTANTVOLUME,ZONE OFFICE WHOLEBUILDING - MD OFFICE  - STORY GROUND PSZ-AC FAN,Outlet,1
 Non-Parent Node Connection,ZONE OFFICE WHOLEBUILDING - MD OFFICE  - STORY TOP 1 PSZ-AC ELECTRIC BACKUP HTG COIL OUTLET AIR NODE,FAN:CONSTANTVOLUME,ZONE OFFICE WHOLEBUILDING - MD OFFICE  - STORY TOP 1 PSZ-AC FAN,Inlet,1
 Non-Parent Node Connection,ZONE OFFICE WHOLEBUILDING - MD OFFICE  - STORY TOP 1 PSZ-AC SUPPLY OUTLET NODE,FAN:CONSTANTVOLUME,ZONE OFFICE WHOLEBUILDING - MD OFFICE  - STORY TOP 1 PSZ-AC FAN,Outlet,1
 Non-Parent Node Connection,ZONE OFFICE WHOLEBUILDING - MD OFFICE  - STORY TOP PSZ-AC ELECTRIC BACKUP HTG COIL OUTLET AIR NODE,FAN:CONSTANTVOLUME,ZONE OFFICE WHOLEBUILDING - MD OFFICE  - STORY TOP PSZ-AC FAN,Inlet,1
 Non-Parent Node Connection,ZONE OFFICE WHOLEBUILDING - MD OFFICE  - STORY TOP PSZ-AC SUPPLY OUTLET NODE,FAN:CONSTANTVOLUME,ZONE OFFICE WHOLEBUILDING - MD OFFICE  - STORY TOP PSZ-AC FAN,Outlet,1
 Non-Parent Node Connection,ZONE OFFICE WHOLEBUILDING - MD OFFICE  - STORY B1 1 PSZ-AC MIXED AIR NODE,CONTROLLER:OUTDOORAIR,ZONE OFFICE WHOLEBUILDING - MD OFFICE  - STORY B1 1 PSZ-AC OA SYSTEM CONTROLLER,Sensor,1
 Non-Parent Node Connection,ZONE OFFICE WHOLEBUILDING - MD OFFICE  - STORY B1 1 PSZ-AC OUTDOOR AIR NODE,CONTROLLER:OUTDOORAIR,ZONE OFFICE WHOLEBUILDING - MD OFFICE  - STORY B1 1 PSZ-AC OA SYSTEM CONTROLLER,Actuator,1
 Non-Parent Node Connection,ZONE OFFICE WHOLEBUILDING - MD OFFICE  - STORY B1 1 PSZ-AC RELIEF AIR NODE,CONTROLLER:OUTDOORAIR,ZONE OFFICE WHOLEBUILDING - MD OFFICE  - STORY B1 1 PSZ-AC OA SYSTEM CONTROLLER,Actuator,1
 Non-Parent Node Connection,ZONE OFFICE WHOLEBUILDING - MD OFFICE  - STORY B1 1 PSZ-AC SUPPLY INLET NODE,CONTROLLER:OUTDOORAIR,ZONE OFFICE WHOLEBUILDING - MD OFFICE  - STORY B1 1 PSZ-AC OA SYSTEM CONTROLLER,Sensor,1
 Non-Parent Node Connection,ZONE OFFICE WHOLEBUILDING - MD OFFICE  - STORY B1 PSZ-AC MIXED AIR NODE,CONTROLLER:OUTDOORAIR,ZONE OFFICE WHOLEBUILDING - MD OFFICE  - STORY B1 PSZ-AC OA SYSTEM CONTROLLER,Sensor,1
 Non-Parent Node Connection,ZONE OFFICE WHOLEBUILDING - MD OFFICE  - STORY B1 PSZ-AC OUTDOOR AIR NODE,CONTROLLER:OUTDOORAIR,ZONE OFFICE WHOLEBUILDING - MD OFFICE  - STORY B1 PSZ-AC OA SYSTEM CONTROLLER,Actuator,1
 Non-Parent Node Connection,ZONE OFFICE WHOLEBUILDING - MD OFFICE  - STORY B1 PSZ-AC RELIEF AIR NODE,CONTROLLER:OUTDOORAIR,ZONE OFFICE WHOLEBUILDING - MD OFFICE  - STORY B1 PSZ-AC OA SYSTEM CONTROLLER,Actuator,1
 Non-Parent Node Connection,ZONE OFFICE WHOLEBUILDING - MD OFFICE  - STORY B1 PSZ-AC SUPPLY INLET NODE,CONTROLLER:OUTDOORAIR,ZONE OFFICE WHOLEBUILDING - MD OFFICE  - STORY B1 PSZ-AC OA SYSTEM CONTROLLER,Sensor,1
 Non-Parent Node Connection,ZONE OFFICE WHOLEBUILDING - MD OFFICE  - STORY GROUND 1 PSZ-AC MIXED AIR NODE,CONTROLLER:OUTDOORAIR,ZONE OFFICE WHOLEBUILDING - MD OFFICE  - STORY GROUND 1 PSZ-AC OA SYSTEM CONTROLLER,Sensor,1
 Non-Parent Node Connection,ZONE OFFICE WHOLEBUILDING - MD OFFICE  - STORY GROUND 1 PSZ-AC OUTDOOR AIR NODE,CONTROLLER:OUTDOORAIR,ZONE OFFICE WHOLEBUILDING - MD OFFICE  - STORY GROUND 1 PSZ-AC OA SYSTEM CONTROLLER,Actuator,1
 Non-Parent Node Connection,ZONE OFFICE WHOLEBUILDING - MD OFFICE  - STORY GROUND 1 PSZ-AC RELIEF AIR NODE,CONTROLLER:OUTDOORAIR,ZONE OFFICE WHOLEBUILDING - MD OFFICE  - STORY GROUND 1 PSZ-AC OA SYSTEM CONTROLLER,Actuator,1
 Non-Parent Node Connection,ZONE OFFICE WHOLEBUILDING - MD OFFICE  - STORY GROUND 1 PSZ-AC SUPPLY INLET NODE,CONTROLLER:OUTDOORAIR,ZONE OFFICE WHOLEBUILDING - MD OFFICE  - STORY GROUND 1 PSZ-AC OA SYSTEM CONTROLLER,Sensor,1
 Non-Parent Node Connection,ZONE OFFICE WHOLEBUILDING - MD OFFICE  - STORY GROUND PSZ-AC MIXED AIR NODE,CONTROLLER:OUTDOORAIR,ZONE OFFICE WHOLEBUILDING - MD OFFICE  - STORY GROUND PSZ-AC OA SYSTEM CONTROLLER,Sensor,1
 Non-Parent Node Connection,ZONE OFFICE WHOLEBUILDING - MD OFFICE  - STORY GROUND PSZ-AC OUTDOOR AIR NODE,CONTROLLER:OUTDOORAIR,ZONE OFFICE WHOLEBUILDING - MD OFFICE  - STORY GROUND PSZ-AC OA SYSTEM CONTROLLER,Actuator,1
 Non-Parent Node Connection,ZONE OFFICE WHOLEBUILDING - MD OFFICE  - STORY GROUND PSZ-AC RELIEF AIR NODE,CONTROLLER:OUTDOORAIR,ZONE OFFICE WHOLEBUILDING - MD OFFICE  - STORY GROUND PSZ-AC OA SYSTEM CONTROLLER,Actuator,1
 Non-Parent Node Connection,ZONE OFFICE WHOLEBUILDING - MD OFFICE  - STORY GROUND PSZ-AC SUPPLY INLET NODE,CONTROLLER:OUTDOORAIR,ZONE OFFICE WHOLEBUILDING - MD OFFICE  - STORY GROUND PSZ-AC OA SYSTEM CONTROLLER,Sensor,1
 Non-Parent Node Connection,ZONE OFFICE WHOLEBUILDING - MD OFFICE  - STORY TOP 1 PSZ-AC MIXED AIR NODE,CONTROLLER:OUTDOORAIR,ZONE OFFICE WHOLEBUILDING - MD OFFICE  - STORY TOP 1 PSZ-AC OA SYSTEM CONTROLLER,Sensor,1
 Non-Parent Node Connection,ZONE OFFICE WHOLEBUILDING - MD OFFICE  - STORY TOP 1 PSZ-AC OUTDOOR AIR NODE,CONTROLLER:OUTDOORAIR,ZONE OFFICE WHOLEBUILDING - MD OFFICE  - STORY TOP 1 PSZ-AC OA SYSTEM CONTROLLER,Actuator,1
 Non-Parent Node Connection,ZONE OFFICE WHOLEBUILDING - MD OFFICE  - STORY TOP 1 PSZ-AC RELIEF AIR NODE,CONTROLLER:OUTDOORAIR,ZONE OFFICE WHOLEBUILDING - MD OFFICE  - STORY TOP 1 PSZ-AC OA SYSTEM CONTROLLER,Actuator,1
 Non-Parent Node Connection,ZONE OFFICE WHOLEBUILDING - MD OFFICE  - STORY TOP 1 PSZ-AC SUPPLY INLET NODE,CONTROLLER:OUTDOORAIR,ZONE OFFICE WHOLEBUILDING - MD OFFICE  - STORY TOP 1 PSZ-AC OA SYSTEM CONTROLLER,Sensor,1
 Non-Parent Node Connection,ZONE OFFICE WHOLEBUILDING - MD OFFICE  - STORY TOP PSZ-AC MIXED AIR NODE,CONTROLLER:OUTDOORAIR,ZONE OFFICE WHOLEBUILDING - MD OFFICE  - STORY TOP PSZ-AC OA SYSTEM CONTROLLER,Sensor,1
 Non-Parent Node Connection,ZONE OFFICE WHOLEBUILDING - MD OFFICE  - STORY TOP PSZ-AC OUTDOOR AIR NODE,CONTROLLER:OUTDOORAIR,ZONE OFFICE WHOLEBUILDING - MD OFFICE  - STORY TOP PSZ-AC OA SYSTEM CONTROLLER,Actuator,1
 Non-Parent Node Connection,ZONE OFFICE WHOLEBUILDING - MD OFFICE  - STORY TOP PSZ-AC RELIEF AIR NODE,CONTROLLER:OUTDOORAIR,ZONE OFFICE WHOLEBUILDING - MD OFFICE  - STORY TOP PSZ-AC OA SYSTEM CONTROLLER,Actuator,1
 Non-Parent Node Connection,ZONE OFFICE WHOLEBUILDING - MD OFFICE  - STORY TOP PSZ-AC SUPPLY INLET NODE,CONTROLLER:OUTDOORAIR,ZONE OFFICE WHOLEBUILDING - MD OFFICE  - STORY TOP PSZ-AC OA SYSTEM CONTROLLER,Sensor,1
 Non-Parent Node Connection,ZONE OFFICE WHOLEBUILDING - MD OFFICE  - STORY B1 1 PSZ-AC MIXED AIR NODE,COIL:COOLING:DX:SINGLESPEED,ZONE OFFICE WHOLEBUILDING - MD OFFICE  - STORY B1 1 PSZ-AC 1SPD DX AC CLG COIL,Inlet,1
 Non-Parent Node Connection,ZONE OFFICE WHOLEBUILDING - MD OFFICE  - STORY B1 1 PSZ-AC 1SPD DX AC CLG COIL OUTLET AIR NODE,COIL:COOLING:DX:SINGLESPEED,ZONE OFFICE WHOLEBUILDING - MD OFFICE  - STORY B1 1 PSZ-AC 1SPD DX AC CLG COIL,Outlet,1
 Non-Parent Node Connection,ZONE OFFICE WHOLEBUILDING - MD OFFICE  - STORY B1 PSZ-AC MIXED AIR NODE,COIL:COOLING:DX:SINGLESPEED,ZONE OFFICE WHOLEBUILDING - MD OFFICE  - STORY B1 PSZ-AC 1SPD DX AC CLG COIL,Inlet,1
 Non-Parent Node Connection,ZONE OFFICE WHOLEBUILDING - MD OFFICE  - STORY B1 PSZ-AC 1SPD DX AC CLG COIL OUTLET AIR NODE,COIL:COOLING:DX:SINGLESPEED,ZONE OFFICE WHOLEBUILDING - MD OFFICE  - STORY B1 PSZ-AC 1SPD DX AC CLG COIL,Outlet,1
 Non-Parent Node Connection,ZONE OFFICE WHOLEBUILDING - MD OFFICE  - STORY GROUND 1 PSZ-AC MIXED AIR NODE,COIL:COOLING:DX:SINGLESPEED,ZONE OFFICE WHOLEBUILDING - MD OFFICE  - STORY GROUND 1 PSZ-AC 1SPD DX AC CLG COIL,Inlet,1
 Non-Parent Node Connection,ZONE OFFICE WHOLEBUILDING - MD OFFICE  - STORY GROUND 1 PSZ-AC 1SPD DX AC CLG COIL OUTLET AIR NODE,COIL:COOLING:DX:SINGLESPEED,ZONE OFFICE WHOLEBUILDING - MD OFFICE  - STORY GROUND 1 PSZ-AC 1SPD DX AC CLG COIL,Outlet,1
 Non-Parent Node Connection,ZONE OFFICE WHOLEBUILDING - MD OFFICE  - STORY GROUND PSZ-AC MIXED AIR NODE,COIL:COOLING:DX:SINGLESPEED,ZONE OFFICE WHOLEBUILDING - MD OFFICE  - STORY GROUND PSZ-AC 1SPD DX AC CLG COIL,Inlet,1
 Non-Parent Node Connection,ZONE OFFICE WHOLEBUILDING - MD OFFICE  - STORY GROUND PSZ-AC 1SPD DX AC CLG COIL OUTLET AIR NODE,COIL:COOLING:DX:SINGLESPEED,ZONE OFFICE WHOLEBUILDING - MD OFFICE  - STORY GROUND PSZ-AC 1SPD DX AC CLG COIL,Outlet,1
 Non-Parent Node Connection,ZONE OFFICE WHOLEBUILDING - MD OFFICE  - STORY TOP 1 PSZ-AC MIXED AIR NODE,COIL:COOLING:DX:SINGLESPEED,ZONE OFFICE WHOLEBUILDING - MD OFFICE  - STORY TOP 1 PSZ-AC 1SPD DX AC CLG COIL,Inlet,1
 Non-Parent Node Connection,ZONE OFFICE WHOLEBUILDING - MD OFFICE  - STORY TOP 1 PSZ-AC 1SPD DX AC CLG COIL OUTLET AIR NODE,COIL:COOLING:DX:SINGLESPEED,ZONE OFFICE WHOLEBUILDING - MD OFFICE  - STORY TOP 1 PSZ-AC 1SPD DX AC CLG COIL,Outlet,1
 Non-Parent Node Connection,ZONE OFFICE WHOLEBUILDING - MD OFFICE  - STORY TOP PSZ-AC MIXED AIR NODE,COIL:COOLING:DX:SINGLESPEED,ZONE OFFICE WHOLEBUILDING - MD OFFICE  - STORY TOP PSZ-AC 1SPD DX AC CLG COIL,Inlet,1
 Non-Parent Node Connection,ZONE OFFICE WHOLEBUILDING - MD OFFICE  - STORY TOP PSZ-AC 1SPD DX AC CLG COIL OUTLET AIR NODE,COIL:COOLING:DX:SINGLESPEED,ZONE OFFICE WHOLEBUILDING - MD OFFICE  - STORY TOP PSZ-AC 1SPD DX AC CLG COIL,Outlet,1
 Non-Parent Node Connection,ZONE OFFICE WHOLEBUILDING - MD OFFICE  - STORY B1 1 PSZ-AC GAS HTG COIL OUTLET AIR NODE,COIL:HEATING:ELECTRIC,ZONE OFFICE WHOLEBUILDING - MD OFFICE  - STORY B1 1 PSZ-AC ELECTRIC BACKUP HTG COIL,Inlet,1
 Non-Parent Node Connection,ZONE OFFICE WHOLEBUILDING - MD OFFICE  - STORY B1 1 PSZ-AC ELECTRIC BACKUP HTG COIL OUTLET AIR NODE,COIL:HEATING:ELECTRIC,ZONE OFFICE WHOLEBUILDING - MD OFFICE  - STORY B1 1 PSZ-AC ELECTRIC BACKUP HTG COIL,Outlet,1
 Non-Parent Node Connection,ZONE OFFICE WHOLEBUILDING - MD OFFICE  - STORY B1 1 PSZ-AC ELECTRIC BACKUP HTG COIL OUTLET AIR NODE,COIL:HEATING:ELECTRIC,ZONE OFFICE WHOLEBUILDING - MD OFFICE  - STORY B1 1 PSZ-AC ELECTRIC BACKUP HTG COIL,Sensor,1
 Non-Parent Node Connection,ZONE OFFICE WHOLEBUILDING - MD OFFICE  - STORY B1 PSZ-AC GAS HTG COIL OUTLET AIR NODE,COIL:HEATING:ELECTRIC,ZONE OFFICE WHOLEBUILDING - MD OFFICE  - STORY B1 PSZ-AC ELECTRIC BACKUP HTG COIL,Inlet,1
 Non-Parent Node Connection,ZONE OFFICE WHOLEBUILDING - MD OFFICE  - STORY B1 PSZ-AC ELECTRIC BACKUP HTG COIL OUTLET AIR NODE,COIL:HEATING:ELECTRIC,ZONE OFFICE WHOLEBUILDING - MD OFFICE  - STORY B1 PSZ-AC ELECTRIC BACKUP HTG COIL,Outlet,1
 Non-Parent Node Connection,ZONE OFFICE WHOLEBUILDING - MD OFFICE  - STORY B1 PSZ-AC ELECTRIC BACKUP HTG COIL OUTLET AIR NODE,COIL:HEATING:ELECTRIC,ZONE OFFICE WHOLEBUILDING - MD OFFICE  - STORY B1 PSZ-AC ELECTRIC BACKUP HTG COIL,Sensor,1
 Non-Parent Node Connection,ZONE OFFICE WHOLEBUILDING - MD OFFICE  - STORY GROUND 1 PSZ-AC GAS HTG COIL OUTLET AIR NODE,COIL:HEATING:ELECTRIC,ZONE OFFICE WHOLEBUILDING - MD OFFICE  - STORY GROUND 1 PSZ-AC ELECTRIC BACKUP HTG COIL,Inlet,1
 Non-Parent Node Connection,ZONE OFFICE WHOLEBUILDING - MD OFFICE  - STORY GROUND 1 PSZ-AC ELECTRIC BACKUP HTG COIL OUTLET AIR NODE,COIL:HEATING:ELECTRIC,ZONE OFFICE WHOLEBUILDING - MD OFFICE  - STORY GROUND 1 PSZ-AC ELECTRIC BACKUP HTG COIL,Outlet,1
 Non-Parent Node Connection,ZONE OFFICE WHOLEBUILDING - MD OFFICE  - STORY GROUND 1 PSZ-AC ELECTRIC BACKUP HTG COIL OUTLET AIR NODE,COIL:HEATING:ELECTRIC,ZONE OFFICE WHOLEBUILDING - MD OFFICE  - STORY GROUND 1 PSZ-AC ELECTRIC BACKUP HTG COIL,Sensor,1
 Non-Parent Node Connection,ZONE OFFICE WHOLEBUILDING - MD OFFICE  - STORY GROUND PSZ-AC GAS HTG COIL OUTLET AIR NODE,COIL:HEATING:ELECTRIC,ZONE OFFICE WHOLEBUILDING - MD OFFICE  - STORY GROUND PSZ-AC ELECTRIC BACKUP HTG COIL,Inlet,1
 Non-Parent Node Connection,ZONE OFFICE WHOLEBUILDING - MD OFFICE  - STORY GROUND PSZ-AC ELECTRIC BACKUP HTG COIL OUTLET AIR NODE,COIL:HEATING:ELECTRIC,ZONE OFFICE WHOLEBUILDING - MD OFFICE  - STORY GROUND PSZ-AC ELECTRIC BACKUP HTG COIL,Outlet,1
 Non-Parent Node Connection,ZONE OFFICE WHOLEBUILDING - MD OFFICE  - STORY GROUND PSZ-AC ELECTRIC BACKUP HTG COIL OUTLET AIR NODE,COIL:HEATING:ELECTRIC,ZONE OFFICE WHOLEBUILDING - MD OFFICE  - STORY GROUND PSZ-AC ELECTRIC BACKUP HTG COIL,Sensor,1
 Non-Parent Node Connection,ZONE OFFICE WHOLEBUILDING - MD OFFICE  - STORY TOP 1 PSZ-AC GAS HTG COIL OUTLET AIR NODE,COIL:HEATING:ELECTRIC,ZONE OFFICE WHOLEBUILDING - MD OFFICE  - STORY TOP 1 PSZ-AC ELECTRIC BACKUP HTG COIL,Inlet,1
 Non-Parent Node Connection,ZONE OFFICE WHOLEBUILDING - MD OFFICE  - STORY TOP 1 PSZ-AC ELECTRIC BACKUP HTG COIL OUTLET AIR NODE,COIL:HEATING:ELECTRIC,ZONE OFFICE WHOLEBUILDING - MD OFFICE  - STORY TOP 1 PSZ-AC ELECTRIC BACKUP HTG COIL,Outlet,1
 Non-Parent Node Connection,ZONE OFFICE WHOLEBUILDING - MD OFFICE  - STORY TOP 1 PSZ-AC ELECTRIC BACKUP HTG COIL OUTLET AIR NODE,COIL:HEATING:ELECTRIC,ZONE OFFICE WHOLEBUILDING - MD OFFICE  - STORY TOP 1 PSZ-AC ELECTRIC BACKUP HTG COIL,Sensor,1
 Non-Parent Node Connection,ZONE OFFICE WHOLEBUILDING - MD OFFICE  - STORY TOP PSZ-AC GAS HTG COIL OUTLET AIR NODE,COIL:HEATING:ELECTRIC,ZONE OFFICE WHOLEBUILDING - MD OFFICE  - STORY TOP PSZ-AC ELECTRIC BACKUP HTG COIL,Inlet,1
 Non-Parent Node Connection,ZONE OFFICE WHOLEBUILDING - MD OFFICE  - STORY TOP PSZ-AC ELECTRIC BACKUP HTG COIL OUTLET AIR NODE,COIL:HEATING:ELECTRIC,ZONE OFFICE WHOLEBUILDING - MD OFFICE  - STORY TOP PSZ-AC ELECTRIC BACKUP HTG COIL,Outlet,1
 Non-Parent Node Connection,ZONE OFFICE WHOLEBUILDING - MD OFFICE  - STORY TOP PSZ-AC ELECTRIC BACKUP HTG COIL OUTLET AIR NODE,COIL:HEATING:ELECTRIC,ZONE OFFICE WHOLEBUILDING - MD OFFICE  - STORY TOP PSZ-AC ELECTRIC BACKUP HTG COIL,Sensor,1
 Non-Parent Node Connection,ZONE OFFICE WHOLEBUILDING - MD OFFICE  - STORY B1 1 PSZ-AC 1SPD DX AC CLG COIL OUTLET AIR NODE,COIL:HEATING:FUEL,ZONE OFFICE WHOLEBUILDING - MD OFFICE  - STORY B1 1 PSZ-AC GAS HTG COIL,Inlet,1
 Non-Parent Node Connection,ZONE OFFICE WHOLEBUILDING - MD OFFICE  - STORY B1 1 PSZ-AC GAS HTG COIL OUTLET AIR NODE,COIL:HEATING:FUEL,ZONE OFFICE WHOLEBUILDING - MD OFFICE  - STORY B1 1 PSZ-AC GAS HTG COIL,Outlet,1
 Non-Parent Node Connection,ZONE OFFICE WHOLEBUILDING - MD OFFICE  - STORY B1 1 PSZ-AC GAS HTG COIL OUTLET AIR NODE,COIL:HEATING:FUEL,ZONE OFFICE WHOLEBUILDING - MD OFFICE  - STORY B1 1 PSZ-AC GAS HTG COIL,Sensor,1
 Non-Parent Node Connection,ZONE OFFICE WHOLEBUILDING - MD OFFICE  - STORY B1 PSZ-AC 1SPD DX AC CLG COIL OUTLET AIR NODE,COIL:HEATING:FUEL,ZONE OFFICE WHOLEBUILDING - MD OFFICE  - STORY B1 PSZ-AC GAS HTG COIL,Inlet,1
 Non-Parent Node Connection,ZONE OFFICE WHOLEBUILDING - MD OFFICE  - STORY B1 PSZ-AC GAS HTG COIL OUTLET AIR NODE,COIL:HEATING:FUEL,ZONE OFFICE WHOLEBUILDING - MD OFFICE  - STORY B1 PSZ-AC GAS HTG COIL,Outlet,1
 Non-Parent Node Connection,ZONE OFFICE WHOLEBUILDING - MD OFFICE  - STORY B1 PSZ-AC GAS HTG COIL OUTLET AIR NODE,COIL:HEATING:FUEL,ZONE OFFICE WHOLEBUILDING - MD OFFICE  - STORY B1 PSZ-AC GAS HTG COIL,Sensor,1
 Non-Parent Node Connection,ZONE OFFICE WHOLEBUILDING - MD OFFICE  - STORY GROUND 1 PSZ-AC 1SPD DX AC CLG COIL OUTLET AIR NODE,COIL:HEATING:FUEL,ZONE OFFICE WHOLEBUILDING - MD OFFICE  - STORY GROUND 1 PSZ-AC GAS HTG COIL,Inlet,1
 Non-Parent Node Connection,ZONE OFFICE WHOLEBUILDING - MD OFFICE  - STORY GROUND 1 PSZ-AC GAS HTG COIL OUTLET AIR NODE,COIL:HEATING:FUEL,ZONE OFFICE WHOLEBUILDING - MD OFFICE  - STORY GROUND 1 PSZ-AC GAS HTG COIL,Outlet,1
 Non-Parent Node Connection,ZONE OFFICE WHOLEBUILDING - MD OFFICE  - STORY GROUND 1 PSZ-AC GAS HTG COIL OUTLET AIR NODE,COIL:HEATING:FUEL,ZONE OFFICE WHOLEBUILDING - MD OFFICE  - STORY GROUND 1 PSZ-AC GAS HTG COIL,Sensor,1
 Non-Parent Node Connection,ZONE OFFICE WHOLEBUILDING - MD OFFICE  - STORY GROUND PSZ-AC 1SPD DX AC CLG COIL OUTLET AIR NODE,COIL:HEATING:FUEL,ZONE OFFICE WHOLEBUILDING - MD OFFICE  - STORY GROUND PSZ-AC GAS HTG COIL,Inlet,1
 Non-Parent Node Connection,ZONE OFFICE WHOLEBUILDING - MD OFFICE  - STORY GROUND PSZ-AC GAS HTG COIL OUTLET AIR NODE,COIL:HEATING:FUEL,ZONE OFFICE WHOLEBUILDING - MD OFFICE  - STORY GROUND PSZ-AC GAS HTG COIL,Outlet,1
 Non-Parent Node Connection,ZONE OFFICE WHOLEBUILDING - MD OFFICE  - STORY GROUND PSZ-AC GAS HTG COIL OUTLET AIR NODE,COIL:HEATING:FUEL,ZONE OFFICE WHOLEBUILDING - MD OFFICE  - STORY GROUND PSZ-AC GAS HTG COIL,Sensor,1
 Non-Parent Node Connection,ZONE OFFICE WHOLEBUILDING - MD OFFICE  - STORY TOP 1 PSZ-AC 1SPD DX AC CLG COIL OUTLET AIR NODE,COIL:HEATING:FUEL,ZONE OFFICE WHOLEBUILDING - MD OFFICE  - STORY TOP 1 PSZ-AC GAS HTG COIL,Inlet,1
 Non-Parent Node Connection,ZONE OFFICE WHOLEBUILDING - MD OFFICE  - STORY TOP 1 PSZ-AC GAS HTG COIL OUTLET AIR NODE,COIL:HEATING:FUEL,ZONE OFFICE WHOLEBUILDING - MD OFFICE  - STORY TOP 1 PSZ-AC GAS HTG COIL,Outlet,1
 Non-Parent Node Connection,ZONE OFFICE WHOLEBUILDING - MD OFFICE  - STORY TOP 1 PSZ-AC GAS HTG COIL OUTLET AIR NODE,COIL:HEATING:FUEL,ZONE OFFICE WHOLEBUILDING - MD OFFICE  - STORY TOP 1 PSZ-AC GAS HTG COIL,Sensor,1
 Non-Parent Node Connection,ZONE OFFICE WHOLEBUILDING - MD OFFICE  - STORY TOP PSZ-AC 1SPD DX AC CLG COIL OUTLET AIR NODE,COIL:HEATING:FUEL,ZONE OFFICE WHOLEBUILDING - MD OFFICE  - STORY TOP PSZ-AC GAS HTG COIL,Inlet,1
 Non-Parent Node Connection,ZONE OFFICE WHOLEBUILDING - MD OFFICE  - STORY TOP PSZ-AC GAS HTG COIL OUTLET AIR NODE,COIL:HEATING:FUEL,ZONE OFFICE WHOLEBUILDING - MD OFFICE  - STORY TOP PSZ-AC GAS HTG COIL,Outlet,1
 Non-Parent Node Connection,ZONE OFFICE WHOLEBUILDING - MD OFFICE  - STORY TOP PSZ-AC GAS HTG COIL OUTLET AIR NODE,COIL:HEATING:FUEL,ZONE OFFICE WHOLEBUILDING - MD OFFICE  - STORY TOP PSZ-AC GAS HTG COIL,Sensor,1
 Non-Parent Node Connection,HOT WATER LOOP SUPPLY INLET NODE,PUMP:VARIABLESPEED,HOT WATER LOOP PUMP,Inlet,1
 Non-Parent Node Connection,HOT WATER LOOP PUMP OUTLET WATER NODE,PUMP:VARIABLESPEED,HOT WATER LOOP PUMP,Outlet,1
 Non-Parent Node Connection,OFFICE SHARED SERVICE WATER LOOP SUPPLY INLET NODE,PUMP:CONSTANTSPEED,OFFICE SHARED SERVICE WATER LOOP CIRCULATOR PUMP,Inlet,1
 Non-Parent Node Connection,OFFICE SHARED SERVICE WATER LOOP CIRCULATOR PUMP OUTLET WATER NODE,PUMP:CONSTANTSPEED,OFFICE SHARED SERVICE WATER LOOP CIRCULATOR PUMP,Outlet,1
